REMARK  Name = ../refined-set-2016/4gu6/4gu6_pocket.pdb
REMARK  208 active torsions:
REMARK  status: ('A' for Active; 'I' for Inactive)
REMARK    1  A    between atoms: _1  and  _3
REMARK    2  A    between atoms: _3  and  _4
REMARK    3  A    between atoms: _3  and  _6
REMARK    4  A    between atoms: _8  and  _10
REMARK    5  A    between atoms: _10  and  _11
REMARK    6  A    between atoms: _10  and  _13
REMARK    7  A    between atoms: _13  and  _14
REMARK    8  A    between atoms: _17  and  _19
REMARK    9  A    between atoms: _19  and  _20
REMARK   10  A    between atoms: _22  and  _24
REMARK   11  A    between atoms: _24  and  _25
REMARK   12  A    between atoms: _24  and  _27
REMARK   13  A    between atoms: _27  and  _28
REMARK   14  A    between atoms: _28  and  _29
REMARK   15  A    between atoms: _32  and  _34
REMARK   16  A    between atoms: _34  and  _35
REMARK   17  A    between atoms: _37  and  _39
REMARK   18  A    between atoms: _39  and  _40
REMARK   19  A    between atoms: _39  and  _42
REMARK   20  A    between atoms: _42  and  _43
REMARK   21  A    between atoms: _43  and  _44
REMARK   22  A    between atoms: _49  and  _51
REMARK   23  A    between atoms: _51  and  _52
REMARK   24  A    between atoms: _54  and  _56
REMARK   25  A    between atoms: _56  and  _57
REMARK   26  A    between atoms: _56  and  _59
REMARK   27  A    between atoms: _59  and  _60
REMARK   28  A    between atoms: _63  and  _65
REMARK   29  A    between atoms: _65  and  _66
REMARK   30  A    between atoms: _65  and  _68
REMARK   31  A    between atoms: _71  and  _73
REMARK   32  A    between atoms: _73  and  _74
REMARK   33  A    between atoms: _73  and  _76
REMARK   34  A    between atoms: _76  and  _77
REMARK   35  A    between atoms: _82  and  _84
REMARK   36  A    between atoms: _84  and  _85
REMARK   37  A    between atoms: _84  and  _87
REMARK   38  A    between atoms: _87  and  _88
REMARK   39  A    between atoms: _88  and  _89
REMARK   40  A    between atoms: _94  and  _96
REMARK   41  A    between atoms: _96  and  _97
REMARK   42  A    between atoms: _100  and  _102
REMARK   43  A    between atoms: _102  and  _103
REMARK   44  A    between atoms: _102  and  _105
REMARK   45  A    between atoms: _108  and  _110
REMARK   46  A    between atoms: _110  and  _111
REMARK   47  A    between atoms: _114  and  _116
REMARK   48  A    between atoms: _116  and  _117
REMARK   49  A    between atoms: _116  and  _119
REMARK   50  A    between atoms: _119  and  _120
REMARK   51  A    between atoms: _123  and  _125
REMARK   52  A    between atoms: _125  and  _126
REMARK   53  A    between atoms: _125  and  _128
REMARK   54  A    between atoms: _128  and  _129
REMARK   55  A    between atoms: _129  and  _130
REMARK   56  A    between atoms: _130  and  _131
REMARK   57  A    between atoms: _131  and  _132
REMARK   58  A    between atoms: _136  and  _138
REMARK   59  A    between atoms: _138  and  _139
REMARK   60  A    between atoms: _138  and  _141
REMARK   61  A    between atoms: _141  and  _142
REMARK   62  A    between atoms: _142  and  _143
REMARK   63  A    between atoms: _145  and  _147
REMARK   64  A    between atoms: _147  and  _148
REMARK   65  A    between atoms: _147  and  _150
REMARK   66  A    between atoms: _153  and  _155
REMARK   67  A    between atoms: _155  and  _156
REMARK   68  A    between atoms: _155  and  _158
REMARK   69  A    between atoms: _158  and  _159
REMARK   70  A    between atoms: _159  and  _160
REMARK   71  A    between atoms: _160  and  _161
REMARK   72  A    between atoms: _161  and  _162
REMARK   73  A    between atoms: _166  and  _168
REMARK   74  A    between atoms: _168  and  _169
REMARK   75  A    between atoms: _168  and  _171
REMARK   76  A    between atoms: _171  and  _172
REMARK   77  A    between atoms: _175  and  _177
REMARK   78  A    between atoms: _177  and  _178
REMARK   79  A    between atoms: _177  and  _180
REMARK   80  A    between atoms: _180  and  _181
REMARK   81  A    between atoms: _184  and  _186
REMARK   82  A    between atoms: _186  and  _187
REMARK   83  A    between atoms: _186  and  _189
REMARK   84  A    between atoms: _189  and  _190
REMARK   85  A    between atoms: _190  and  _191
REMARK   86  A    between atoms: _193  and  _195
REMARK   87  A    between atoms: _195  and  _196
REMARK   88  A    between atoms: _195  and  _198
REMARK   89  A    between atoms: _199  and  _200
REMARK   90  A    between atoms: _203  and  _205
REMARK   91  A    between atoms: _205  and  _206
REMARK   92  A    between atoms: _205  and  _208
REMARK   93  A    between atoms: _208  and  _209
REMARK   94  A    between atoms: _212  and  _214
REMARK   95  A    between atoms: _214  and  _215
REMARK   96  A    between atoms: _214  and  _217
REMARK   97  A    between atoms: _219  and  _221
REMARK   98  A    between atoms: _221  and  _222
REMARK   99  A    between atoms: _221  and  _224
REMARK  100  A    between atoms: _224  and  _225
REMARK  101  A    between atoms: _228  and  _230
REMARK  102  A    between atoms: _230  and  _231
REMARK  103  A    between atoms: _230  and  _233
REMARK  104  A    between atoms: _233  and  _234
REMARK  105  A    between atoms: _237  and  _239
REMARK  106  A    between atoms: _239  and  _240
REMARK  107  A    between atoms: _242  and  _244
REMARK  108  A    between atoms: _244  and  _245
REMARK  109  A    between atoms: _244  and  _247
REMARK  110  A    between atoms: _247  and  _248
REMARK  111  A    between atoms: _248  and  _249
REMARK  112  A    between atoms: _252  and  _254
REMARK  113  A    between atoms: _254  and  _255
REMARK  114  A    between atoms: _254  and  _257
REMARK  115  A    between atoms: _257  and  _258
REMARK  116  A    between atoms: _261  and  _263
REMARK  117  A    between atoms: _263  and  _264
REMARK  118  A    between atoms: _263  and  _266
REMARK  119  A    between atoms: _266  and  _267
REMARK  120  A    between atoms: _267  and  _268
REMARK  121  A    between atoms: _268  and  _269
REMARK  122  A    between atoms: _278  and  _280
REMARK  123  A    between atoms: _280  and  _281
REMARK  124  A    between atoms: _280  and  _283
REMARK  125  A    between atoms: _283  and  _284
REMARK  126  A    between atoms: _286  and  _288
REMARK  127  A    between atoms: _288  and  _289
REMARK  128  A    between atoms: _288  and  _291
REMARK  129  A    between atoms: _291  and  _292
REMARK  130  A    between atoms: _297  and  _299
REMARK  131  A    between atoms: _299  and  _300
REMARK  132  A    between atoms: _299  and  _302
REMARK  133  A    between atoms: _302  and  _303
REMARK  134  A    between atoms: _306  and  _308
REMARK  135  A    between atoms: _308  and  _309
REMARK  136  A    between atoms: _312  and  _314
REMARK  137  A    between atoms: _314  and  _315
REMARK  138  A    between atoms: _318  and  _320
REMARK  139  A    between atoms: _320  and  _321
REMARK  140  A    between atoms: _320  and  _323
REMARK  141  A    between atoms: _323  and  _324
REMARK  142  A    between atoms: _324  and  _325
REMARK  143  A    between atoms: _325  and  _326
REMARK  144  A    between atoms: _335  and  _337
REMARK  145  A    between atoms: _337  and  _338
REMARK  146  A    between atoms: _337  and  _340
REMARK  147  A    between atoms: _340  and  _341
REMARK  148  A    between atoms: _346  and  _348
REMARK  149  A    between atoms: _348  and  _349
REMARK  150  A    between atoms: _348  and  _351
REMARK  151  A    between atoms: _354  and  _356
REMARK  152  A    between atoms: _356  and  _357
REMARK  153  A    between atoms: _356  and  _359
REMARK  154  A    between atoms: _359  and  _360
REMARK  155  A    between atoms: _363  and  _365
REMARK  156  A    between atoms: _365  and  _366
REMARK  157  A    between atoms: _365  and  _368
REMARK  158  A    between atoms: _371  and  _373
REMARK  159  A    between atoms: _373  and  _374
REMARK  160  A    between atoms: _373  and  _376
REMARK  161  A    between atoms: _376  and  _377
REMARK  162  A    between atoms: _379  and  _381
REMARK  163  A    between atoms: _381  and  _382
REMARK  164  A    between atoms: _381  and  _384
REMARK  165  A    between atoms: _384  and  _385
REMARK  166  A    between atoms: _385  and  _386
REMARK  167  A    between atoms: _386  and  _387
REMARK  168  A    between atoms: _387  and  _388
REMARK  169  A    between atoms: _392  and  _394
REMARK  170  A    between atoms: _394  and  _395
REMARK  171  A    between atoms: _394  and  _397
REMARK  172  A    between atoms: _397  and  _398
REMARK  173  A    between atoms: _401  and  _403
REMARK  174  A    between atoms: _403  and  _404
REMARK  175  A    between atoms: _406  and  _408
REMARK  176  A    between atoms: _408  and  _409
REMARK  177  A    between atoms: _408  and  _411
REMARK  178  A    between atoms: _411  and  _412
REMARK  179  A    between atoms: _415  and  _417
REMARK  180  A    between atoms: _417  and  _418
REMARK  181  A    between atoms: _417  and  _420
REMARK  182  A    between atoms: _420  and  _421
REMARK  183  A    between atoms: _427  and  _429
REMARK  184  A    between atoms: _429  and  _430
REMARK  185  A    between atoms: _432  and  _434
REMARK  186  A    between atoms: _434  and  _435
REMARK  187  A    between atoms: _434  and  _437
REMARK  188  A    between atoms: _437  and  _438
REMARK  189  A    between atoms: _441  and  _443
REMARK  190  A    between atoms: _443  and  _444
REMARK  191  A    between atoms: _443  and  _446
REMARK  192  A    between atoms: _446  and  _447
REMARK  193  A    between atoms: _449  and  _451
REMARK  194  A    between atoms: _451  and  _452
REMARK  195  A    between atoms: _451  and  _454
REMARK  196  A    between atoms: _454  and  _455
REMARK  197  A    between atoms: _455  and  _456
REMARK  198  A    between atoms: _456  and  _457
REMARK  199  A    between atoms: _466  and  _468
REMARK  200  A    between atoms: _468  and  _469
REMARK  201  A    between atoms: _468  and  _471
REMARK  202  A    between atoms: _471  and  _472
REMARK  203  A    between atoms: _477  and  _478
REMARK  204  A    between atoms: _480  and  _482
REMARK  205  A    between atoms: _482  and  _483
REMARK  206  A    between atoms: _482  and  _485
REMARK  207  A    between atoms: _485  and  _486
REMARK  208  A    between atoms: _486  and  _487
REMARK                            x       y       z     vdW  Elec       q    Type
REMARK                         _______ _______ _______ _____ _____    ______ ____
ROOT
ATOM      1  CA  GLU A   4      19.364  -2.630 -50.426  0.00  0.00    +0.149 C 
ENDROOT
BRANCH   1   3
ATOM      2  C   GLY A   3      21.188  -4.103 -49.887  0.00  0.00    +0.243 C 
ATOM      3  N   GLU A   4      19.885  -3.943 -50.033  0.00  0.00    -0.297 N 
ATOM      4  H   GLU A   4      19.236  -4.739 -49.871  0.00  0.00    +0.150 HD
ATOM      5  O   GLY A   3      22.010  -3.202 -50.103  0.00  0.00    -0.273 OA
BRANCH   2   6
ATOM      6  CA  GLY A   3      21.632  -5.497 -49.492  0.00  0.00    +0.176 C 
BRANCH   6   9
ATOM      7  C   ILE A   2      23.610  -6.593 -48.656  0.00  0.00    +0.241 C 
ATOM      8  O   ILE A   2      22.944  -7.506 -48.159  0.00  0.00    -0.273 OA
ATOM      9  N   GLY A   3      23.065  -5.578 -49.301  0.00  0.00    -0.295 N 
ATOM     10  H   GLY A   3      23.675  -4.825 -49.678  0.00  0.00    +0.150 HD
BRANCH   7  11
ATOM     11  CA  ILE A   2      25.140  -6.559 -48.495  0.00  0.00    +0.148 C 
BRANCH  11  13
ATOM     12  C   CYS A   1      26.568  -5.346 -50.149  0.00  0.00    +0.239 C 
ATOM     13  N   ILE A   2      25.761  -5.356 -49.076  0.00  0.00    -0.297 N 
ATOM     14  H   ILE A   2      25.559  -4.444 -48.620  0.00  0.00    +0.150 HD
ATOM     15  O   CYS A   1      26.916  -6.373 -50.725  0.00  0.00    -0.274 OA
BRANCH  12  16
ATOM     16  CA  CYS A   1      27.161  -3.976 -50.587  0.00  0.00    +0.156 C 
BRANCH  16  17
ATOM     17  CB  CYS A   1      26.577  -3.494 -51.910  0.00  0.00    +0.095 C 
ATOM     18  SG  CYS A   1      24.773  -3.582 -51.988  0.00  0.00    -0.080 S 
ENDBRANCH  16  17
BRANCH  16  19
ATOM     19  N   CYS A   1      28.601  -4.140 -50.720  0.00  0.00    -0.237 NA
ATOM     20  H   CYS A   1      29.009  -4.113 -51.676  0.00  0.00    +0.142 HD
ENDBRANCH  16  19
ENDBRANCH  12  16
ENDBRANCH  11  13
BRANCH  11  21
ATOM     21  CB  ILE A   2      25.559  -6.749 -47.012  0.00  0.00    +0.027 C 
ATOM     22  CG2 ILE A   2      27.025  -7.188 -46.925  0.00  0.00    +0.002 C 
BRANCH  21  23
ATOM     23  CG1 ILE A   2      25.260  -5.462 -46.177  0.00  0.00    +0.002 C 
ATOM     24  CD1 ILE A   2      25.281  -5.624 -44.664  0.00  0.00    +0.000 C 
ENDBRANCH  21  23
ENDBRANCH  11  21
ENDBRANCH   7  11
ENDBRANCH   6   9
ENDBRANCH   2   6
ENDBRANCH   1   3
BRANCH   1  25
ATOM     25  C   GLU A   4      18.195  -2.262 -49.585  0.00  0.00    +0.241 C 
ATOM     26  O   GLU A   4      17.430  -3.125 -49.153  0.00  0.00    -0.273 OA
ATOM     27  N   GLY A   5      18.113  -0.983 -49.283  0.00  0.00    -0.295 N 
ATOM     28  H   GLY A   5      18.889  -0.355 -49.574  0.00  0.00    +0.150 HD
BRANCH  27  29
ATOM     29  CA  GLY A   5      16.996  -0.411 -48.566  0.00  0.00    +0.176 C 
BRANCH  29  30
ATOM     30  C   GLY A   5      16.309   0.596 -49.456  0.00  0.00    +0.243 C 
ATOM     31  N   GLN A   6      15.268   1.210 -48.938  0.00  0.00    -0.298 N 
ATOM     32  H   GLN A   6      15.007   0.974 -47.959  0.00  0.00    +0.150 HD
ATOM     33  O   GLY A   5      16.753   0.842 -50.582  0.00  0.00    -0.273 OA
BRANCH  31  34
ATOM     34  CA  GLN A   6      14.444   2.207 -49.642  0.00  0.00    +0.137 C 
BRANCH  34  35
ATOM     35  C   GLN A   6      15.265   3.423 -50.089  0.00  0.00    +0.227 C 
ATOM     36  O   GLN A   6      14.926   4.064 -51.072  0.00  0.00    -0.286 OA
ENDBRANCH  34  35
BRANCH  34  37
ATOM     37  CB  GLN A   6      13.311   2.679 -48.709  0.00  0.00    +0.037 C 
BRANCH  37  38
ATOM     38  CG  GLN A   6      12.402   1.533 -48.211  0.00  0.00    +0.087 C 
BRANCH  38  39
ATOM     39  CD  GLN A   6      12.834   1.000 -46.859  0.00  0.00    +0.219 C 
ATOM     40  NE2 GLN A   6      11.879   0.909 -45.940  0.00  0.00    -0.329 N 
ATOM     41 HE21 GLN A   6      12.093   0.507 -45.005  0.00  0.00    +0.145 HD
ATOM     42 HE22 GLN A   6      10.917   1.240 -46.155  0.00  0.00    +0.145 HD
ATOM     43  OE1 GLN A   6      13.997   0.615 -46.640  0.00  0.00    -0.275 OA
ENDBRANCH  38  39
ENDBRANCH  37  38
ENDBRANCH  34  37
ENDBRANCH  31  34
ENDBRANCH  29  30
ENDBRANCH  27  29
ENDBRANCH   1  25
BRANCH   1  44
ATOM     44  CB  GLU A   4      18.988  -2.632 -51.913  0.00  0.00    +0.041 C 
BRANCH  44  45
ATOM     45  CG  GLU A   4      18.968  -1.232 -52.520  0.00  0.00    +0.116 C 
BRANCH  45  46
ATOM     46  CD  GLU A   4      18.755  -1.156 -54.021  0.00  0.00    +0.365 C 
ATOM     47  OE2 GLU A   4      17.875  -1.879 -54.545  0.00  0.00    -0.246 OA
ATOM     48  OE1 GLU A   4      19.464  -0.352 -54.671  0.00  0.00    -0.246 OA
ENDBRANCH  45  46
ENDBRANCH  44  45
ENDBRANCH   1  44
TORSDOF 21
REMARK  Name = ../refined-set-2016/4gu6/4gu6_pocket.pdb
REMARK  208 active torsions:
REMARK  status: ('A' for Active; 'I' for Inactive)
REMARK    1  A    between atoms: _1  and  _3
REMARK    2  A    between atoms: _3  and  _4
REMARK    3  A    between atoms: _3  and  _6
REMARK    4  A    between atoms: _8  and  _10
REMARK    5  A    between atoms: _10  and  _11
REMARK    6  A    between atoms: _10  and  _13
REMARK    7  A    between atoms: _13  and  _14
REMARK    8  A    between atoms: _17  and  _19
REMARK    9  A    between atoms: _19  and  _20
REMARK   10  A    between atoms: _22  and  _24
REMARK   11  A    between atoms: _24  and  _25
REMARK   12  A    between atoms: _24  and  _27
REMARK   13  A    between atoms: _27  and  _28
REMARK   14  A    between atoms: _28  and  _29
REMARK   15  A    between atoms: _32  and  _34
REMARK   16  A    between atoms: _34  and  _35
REMARK   17  A    between atoms: _37  and  _39
REMARK   18  A    between atoms: _39  and  _40
REMARK   19  A    between atoms: _39  and  _42
REMARK   20  A    between atoms: _42  and  _43
REMARK   21  A    between atoms: _43  and  _44
REMARK   22  A    between atoms: _49  and  _51
REMARK   23  A    between atoms: _51  and  _52
REMARK   24  A    between atoms: _54  and  _56
REMARK   25  A    between atoms: _56  and  _57
REMARK   26  A    between atoms: _56  and  _59
REMARK   27  A    between atoms: _59  and  _60
REMARK   28  A    between atoms: _63  and  _65
REMARK   29  A    between atoms: _65  and  _66
REMARK   30  A    between atoms: _65  and  _68
REMARK   31  A    between atoms: _71  and  _73
REMARK   32  A    between atoms: _73  and  _74
REMARK   33  A    between atoms: _73  and  _76
REMARK   34  A    between atoms: _76  and  _77
REMARK   35  A    between atoms: _82  and  _84
REMARK   36  A    between atoms: _84  and  _85
REMARK   37  A    between atoms: _84  and  _87
REMARK   38  A    between atoms: _87  and  _88
REMARK   39  A    between atoms: _88  and  _89
REMARK   40  A    between atoms: _94  and  _96
REMARK   41  A    between atoms: _96  and  _97
REMARK   42  A    between atoms: _100  and  _102
REMARK   43  A    between atoms: _102  and  _103
REMARK   44  A    between atoms: _102  and  _105
REMARK   45  A    between atoms: _108  and  _110
REMARK   46  A    between atoms: _110  and  _111
REMARK   47  A    between atoms: _114  and  _116
REMARK   48  A    between atoms: _116  and  _117
REMARK   49  A    between atoms: _116  and  _119
REMARK   50  A    between atoms: _119  and  _120
REMARK   51  A    between atoms: _123  and  _125
REMARK   52  A    between atoms: _125  and  _126
REMARK   53  A    between atoms: _125  and  _128
REMARK   54  A    between atoms: _128  and  _129
REMARK   55  A    between atoms: _129  and  _130
REMARK   56  A    between atoms: _130  and  _131
REMARK   57  A    between atoms: _131  and  _132
REMARK   58  A    between atoms: _136  and  _138
REMARK   59  A    between atoms: _138  and  _139
REMARK   60  A    between atoms: _138  and  _141
REMARK   61  A    between atoms: _141  and  _142
REMARK   62  A    between atoms: _142  and  _143
REMARK   63  A    between atoms: _145  and  _147
REMARK   64  A    between atoms: _147  and  _148
REMARK   65  A    between atoms: _147  and  _150
REMARK   66  A    between atoms: _153  and  _155
REMARK   67  A    between atoms: _155  and  _156
REMARK   68  A    between atoms: _155  and  _158
REMARK   69  A    between atoms: _158  and  _159
REMARK   70  A    between atoms: _159  and  _160
REMARK   71  A    between atoms: _160  and  _161
REMARK   72  A    between atoms: _161  and  _162
REMARK   73  A    between atoms: _166  and  _168
REMARK   74  A    between atoms: _168  and  _169
REMARK   75  A    between atoms: _168  and  _171
REMARK   76  A    between atoms: _171  and  _172
REMARK   77  A    between atoms: _175  and  _177
REMARK   78  A    between atoms: _177  and  _178
REMARK   79  A    between atoms: _177  and  _180
REMARK   80  A    between atoms: _180  and  _181
REMARK   81  A    between atoms: _184  and  _186
REMARK   82  A    between atoms: _186  and  _187
REMARK   83  A    between atoms: _186  and  _189
REMARK   84  A    between atoms: _189  and  _190
REMARK   85  A    between atoms: _190  and  _191
REMARK   86  A    between atoms: _193  and  _195
REMARK   87  A    between atoms: _195  and  _196
REMARK   88  A    between atoms: _195  and  _198
REMARK   89  A    between atoms: _199  and  _200
REMARK   90  A    between atoms: _203  and  _205
REMARK   91  A    between atoms: _205  and  _206
REMARK   92  A    between atoms: _205  and  _208
REMARK   93  A    between atoms: _208  and  _209
REMARK   94  A    between atoms: _212  and  _214
REMARK   95  A    between atoms: _214  and  _215
REMARK   96  A    between atoms: _214  and  _217
REMARK   97  A    between atoms: _219  and  _221
REMARK   98  A    between atoms: _221  and  _222
REMARK   99  A    between atoms: _221  and  _224
REMARK  100  A    between atoms: _224  and  _225
REMARK  101  A    between atoms: _228  and  _230
REMARK  102  A    between atoms: _230  and  _231
REMARK  103  A    between atoms: _230  and  _233
REMARK  104  A    between atoms: _233  and  _234
REMARK  105  A    between atoms: _237  and  _239
REMARK  106  A    between atoms: _239  and  _240
REMARK  107  A    between atoms: _242  and  _244
REMARK  108  A    between atoms: _244  and  _245
REMARK  109  A    between atoms: _244  and  _247
REMARK  110  A    between atoms: _247  and  _248
REMARK  111  A    between atoms: _248  and  _249
REMARK  112  A    between atoms: _252  and  _254
REMARK  113  A    between atoms: _254  and  _255
REMARK  114  A    between atoms: _254  and  _257
REMARK  115  A    between atoms: _257  and  _258
REMARK  116  A    between atoms: _261  and  _263
REMARK  117  A    between atoms: _263  and  _264
REMARK  118  A    between atoms: _263  and  _266
REMARK  119  A    between atoms: _266  and  _267
REMARK  120  A    between atoms: _267  and  _268
REMARK  121  A    between atoms: _268  and  _269
REMARK  122  A    between atoms: _278  and  _280
REMARK  123  A    between atoms: _280  and  _281
REMARK  124  A    between atoms: _280  and  _283
REMARK  125  A    between atoms: _283  and  _284
REMARK  126  A    between atoms: _286  and  _288
REMARK  127  A    between atoms: _288  and  _289
REMARK  128  A    between atoms: _288  and  _291
REMARK  129  A    between atoms: _291  and  _292
REMARK  130  A    between atoms: _297  and  _299
REMARK  131  A    between atoms: _299  and  _300
REMARK  132  A    between atoms: _299  and  _302
REMARK  133  A    between atoms: _302  and  _303
REMARK  134  A    between atoms: _306  and  _308
REMARK  135  A    between atoms: _308  and  _309
REMARK  136  A    between atoms: _312  and  _314
REMARK  137  A    between atoms: _314  and  _315
REMARK  138  A    between atoms: _318  and  _320
REMARK  139  A    between atoms: _320  and  _321
REMARK  140  A    between atoms: _320  and  _323
REMARK  141  A    between atoms: _323  and  _324
REMARK  142  A    between atoms: _324  and  _325
REMARK  143  A    between atoms: _325  and  _326
REMARK  144  A    between atoms: _335  and  _337
REMARK  145  A    between atoms: _337  and  _338
REMARK  146  A    between atoms: _337  and  _340
REMARK  147  A    between atoms: _340  and  _341
REMARK  148  A    between atoms: _346  and  _348
REMARK  149  A    between atoms: _348  and  _349
REMARK  150  A    between atoms: _348  and  _351
REMARK  151  A    between atoms: _354  and  _356
REMARK  152  A    between atoms: _356  and  _357
REMARK  153  A    between atoms: _356  and  _359
REMARK  154  A    between atoms: _359  and  _360
REMARK  155  A    between atoms: _363  and  _365
REMARK  156  A    between atoms: _365  and  _366
REMARK  157  A    between atoms: _365  and  _368
REMARK  158  A    between atoms: _371  and  _373
REMARK  159  A    between atoms: _373  and  _374
REMARK  160  A    between atoms: _373  and  _376
REMARK  161  A    between atoms: _376  and  _377
REMARK  162  A    between atoms: _379  and  _381
REMARK  163  A    between atoms: _381  and  _382
REMARK  164  A    between atoms: _381  and  _384
REMARK  165  A    between atoms: _384  and  _385
REMARK  166  A    between atoms: _385  and  _386
REMARK  167  A    between atoms: _386  and  _387
REMARK  168  A    between atoms: _387  and  _388
REMARK  169  A    between atoms: _392  and  _394
REMARK  170  A    between atoms: _394  and  _395
REMARK  171  A    between atoms: _394  and  _397
REMARK  172  A    between atoms: _397  and  _398
REMARK  173  A    between atoms: _401  and  _403
REMARK  174  A    between atoms: _403  and  _404
REMARK  175  A    between atoms: _406  and  _408
REMARK  176  A    between atoms: _408  and  _409
REMARK  177  A    between atoms: _408  and  _411
REMARK  178  A    between atoms: _411  and  _412
REMARK  179  A    between atoms: _415  and  _417
REMARK  180  A    between atoms: _417  and  _418
REMARK  181  A    between atoms: _417  and  _420
REMARK  182  A    between atoms: _420  and  _421
REMARK  183  A    between atoms: _427  and  _429
REMARK  184  A    between atoms: _429  and  _430
REMARK  185  A    between atoms: _432  and  _434
REMARK  186  A    between atoms: _434  and  _435
REMARK  187  A    between atoms: _434  and  _437
REMARK  188  A    between atoms: _437  and  _438
REMARK  189  A    between atoms: _441  and  _443
REMARK  190  A    between atoms: _443  and  _444
REMARK  191  A    between atoms: _443  and  _446
REMARK  192  A    between atoms: _446  and  _447
REMARK  193  A    between atoms: _449  and  _451
REMARK  194  A    between atoms: _451  and  _452
REMARK  195  A    between atoms: _451  and  _454
REMARK  196  A    between atoms: _454  and  _455
REMARK  197  A    between atoms: _455  and  _456
REMARK  198  A    between atoms: _456  and  _457
REMARK  199  A    between atoms: _466  and  _468
REMARK  200  A    between atoms: _468  and  _469
REMARK  201  A    between atoms: _468  and  _471
REMARK  202  A    between atoms: _471  and  _472
REMARK  203  A    between atoms: _477  and  _478
REMARK  204  A    between atoms: _480  and  _482
REMARK  205  A    between atoms: _482  and  _483
REMARK  206  A    between atoms: _482  and  _485
REMARK  207  A    between atoms: _485  and  _486
REMARK  208  A    between atoms: _486  and  _487
REMARK                            x       y       z     vdW  Elec       q    Type
REMARK                         _______ _______ _______ _____ _____    ______ ____
ROOT
ATOM      1  C   VAL A   3      24.804  -1.924 -47.609  0.00  0.00    +0.241 C 
ATOM      2  N   HIS A   4      25.878  -1.437 -46.995  0.00  0.00    -0.297 N 
ATOM      3  H   HIS A   4      25.771  -0.592 -46.398  0.00  0.00    +0.150 HD
ATOM      4  O   VAL A   3      24.834  -2.901 -48.362  0.00  0.00    -0.273 OA
ENDROOT
BRANCH   2   5
ATOM      5  CA  HIS A   4      27.197  -2.037 -47.124  0.00  0.00    +0.155 C 
BRANCH   5   6
ATOM      6  C   HIS A   4      27.678  -2.583 -45.812  0.00  0.00    +0.241 C 
ATOM      7  O   HIS A   4      27.230  -2.156 -44.737  0.00  0.00    -0.273 OA
ATOM      8  N   GLN A   5      28.612  -3.543 -45.902  0.00  0.00    -0.298 N 
ATOM      9  H   GLN A   5      28.858  -3.983 -46.812  0.00  0.00    +0.150 HD
BRANCH   8  10
ATOM     10  CA  GLN A   5      29.261  -3.936 -44.667  0.00  0.00    +0.137 C 
BRANCH  10  11
ATOM     11  C   GLN A   5      30.468  -3.012 -44.610  0.00  0.00    +0.227 C 
ATOM     12  O   GLN A   5      30.853  -2.418 -45.621  0.00  0.00    -0.286 OA
ENDBRANCH  10  11
BRANCH  10  13
ATOM     13  CB  GLN A   5      29.672  -5.420 -44.640  0.00  0.00    +0.037 C 
BRANCH  13  14
ATOM     14  CG  GLN A   5      30.566  -5.865 -45.786  0.00  0.00    +0.087 C 
BRANCH  14  15
ATOM     15  CD  GLN A   5      31.007  -7.283 -45.535  0.00  0.00    +0.219 C 
ATOM     16  OE1 GLN A   5      30.286  -8.081 -44.945  0.00  0.00    -0.275 OA
ATOM     17  NE2 GLN A   5      32.193  -7.628 -45.976  0.00  0.00    -0.329 N 
ATOM     18 HE21 GLN A   5      32.541  -8.597 -45.828  0.00  0.00    +0.145 HD
ATOM     19 HE22 GLN A   5      32.785  -6.933 -46.473  0.00  0.00    +0.145 HD
ENDBRANCH  14  15
ENDBRANCH  13  14
ENDBRANCH  10  13
ENDBRANCH   8  10
ENDBRANCH   5   6
BRANCH   5  20
ATOM     20  CB  HIS A   4      28.217  -0.969 -47.544  0.00  0.00    +0.076 C 
BRANCH  20  21
ATOM     21  CG  HIS A   4      28.034  -0.429 -48.924  0.00  0.00    +0.082 A 
ATOM     22  CD2 HIS A   4      27.086   0.415 -49.404  0.00  0.00    +0.115 A 
ATOM     23  NE2 HIS A   4      27.381   0.635 -50.726  0.00  0.00    -0.221 NA
ATOM     24  CE1 HIS A   4      28.492  -0.055 -51.004  0.00  0.00    +0.199 A 
ATOM     25  ND1 HIS A   4      28.936  -0.711 -49.939  0.00  0.00    -0.227 NA
ENDBRANCH  20  21
ENDBRANCH   5  20
ENDBRANCH   2   5
BRANCH   1  26
ATOM     26  CA  VAL A   3      23.508  -1.133 -47.444  0.00  0.00    +0.149 C 
BRANCH  26  28
ATOM     27  C   ASP A   2      22.981   0.269 -49.409  0.00  0.00    +0.241 C 
ATOM     28  N   VAL A   3      23.035  -0.922 -48.809  0.00  0.00    -0.297 N 
ATOM     29  H   VAL A   3      22.720  -1.753 -49.349  0.00  0.00    +0.150 HD
ATOM     30  O   ASP A   2      23.238   1.341 -48.838  0.00  0.00    -0.273 OA
BRANCH  27  31
ATOM     31  CA  ASP A   2      22.555   0.236 -50.875  0.00  0.00    +0.160 C 
BRANCH  31  34
ATOM     32  C   GLY A   1      20.631   1.724 -50.718  0.00  0.00    +0.240 C 
ATOM     33  O   GLY A   1      20.131   1.089 -49.776  0.00  0.00    -0.274 OA
ATOM     34  N   ASP A   2      21.798   1.409 -51.271  0.00  0.00    -0.297 N 
ATOM     35  H   ASP A   2      22.183   2.026 -52.015  0.00  0.00    +0.150 HD
BRANCH  32  36
ATOM     36  CA  GLY A   1      19.962   2.956 -51.286  0.00  0.00    +0.169 C 
BRANCH  36  37
ATOM     37  N   GLY A   1      18.784   3.359 -50.534  0.00  0.00    -0.236 NA
ATOM     38  H   GLY A   1      18.224   2.629 -50.049  0.00  0.00    +0.142 HD
ENDBRANCH  36  37
ENDBRANCH  32  36
ENDBRANCH  31  34
BRANCH  31  39
ATOM     39  CB  ASP A   2      23.813   0.125 -51.768  0.00  0.00    +0.143 C 
BRANCH  39  40
ATOM     40  CG  ASP A   2      23.494  -0.242 -53.214  0.00  0.00    +0.367 C 
ATOM     41  OD2 ASP A   2      22.343  -0.711 -53.483  0.00  0.00    -0.246 OA
ATOM     42  OD1 ASP A   2      24.379  -0.065 -54.075  0.00  0.00    -0.246 OA
ENDBRANCH  39  40
ENDBRANCH  31  39
ENDBRANCH  27  31
ENDBRANCH  26  28
BRANCH  26  43
ATOM     43  CB  VAL A   3      22.471  -1.863 -46.563  0.00  0.00    +0.027 C 
ATOM     44  CG2 VAL A   3      23.050  -2.160 -45.168  0.00  0.00    +0.002 C 
ATOM     45  CG1 VAL A   3      21.185  -1.015 -46.451  0.00  0.00    +0.002 C 
ENDBRANCH  26  43
ENDBRANCH   1  26
TORSDOF 18
REMARK  Name = ../refined-set-2016/4gu6/4gu6_pocket.pdb
REMARK  208 active torsions:
REMARK  status: ('A' for Active; 'I' for Inactive)
REMARK    1  A    between atoms: _1  and  _3
REMARK    2  A    between atoms: _3  and  _4
REMARK    3  A    between atoms: _3  and  _6
REMARK    4  A    between atoms: _8  and  _10
REMARK    5  A    between atoms: _10  and  _11
REMARK    6  A    between atoms: _10  and  _13
REMARK    7  A    between atoms: _13  and  _14
REMARK    8  A    between atoms: _17  and  _19
REMARK    9  A    between atoms: _19  and  _20
REMARK   10  A    between atoms: _22  and  _24
REMARK   11  A    between atoms: _24  and  _25
REMARK   12  A    between atoms: _24  and  _27
REMARK   13  A    between atoms: _27  and  _28
REMARK   14  A    between atoms: _28  and  _29
REMARK   15  A    between atoms: _32  and  _34
REMARK   16  A    between atoms: _34  and  _35
REMARK   17  A    between atoms: _37  and  _39
REMARK   18  A    between atoms: _39  and  _40
REMARK   19  A    between atoms: _39  and  _42
REMARK   20  A    between atoms: _42  and  _43
REMARK   21  A    between atoms: _43  and  _44
REMARK   22  A    between atoms: _49  and  _51
REMARK   23  A    between atoms: _51  and  _52
REMARK   24  A    between atoms: _54  and  _56
REMARK   25  A    between atoms: _56  and  _57
REMARK   26  A    between atoms: _56  and  _59
REMARK   27  A    between atoms: _59  and  _60
REMARK   28  A    between atoms: _63  and  _65
REMARK   29  A    between atoms: _65  and  _66
REMARK   30  A    between atoms: _65  and  _68
REMARK   31  A    between atoms: _71  and  _73
REMARK   32  A    between atoms: _73  and  _74
REMARK   33  A    between atoms: _73  and  _76
REMARK   34  A    between atoms: _76  and  _77
REMARK   35  A    between atoms: _82  and  _84
REMARK   36  A    between atoms: _84  and  _85
REMARK   37  A    between atoms: _84  and  _87
REMARK   38  A    between atoms: _87  and  _88
REMARK   39  A    between atoms: _88  and  _89
REMARK   40  A    between atoms: _94  and  _96
REMARK   41  A    between atoms: _96  and  _97
REMARK   42  A    between atoms: _100  and  _102
REMARK   43  A    between atoms: _102  and  _103
REMARK   44  A    between atoms: _102  and  _105
REMARK   45  A    between atoms: _108  and  _110
REMARK   46  A    between atoms: _110  and  _111
REMARK   47  A    between atoms: _114  and  _116
REMARK   48  A    between atoms: _116  and  _117
REMARK   49  A    between atoms: _116  and  _119
REMARK   50  A    between atoms: _119  and  _120
REMARK   51  A    between atoms: _123  and  _125
REMARK   52  A    between atoms: _125  and  _126
REMARK   53  A    between atoms: _125  and  _128
REMARK   54  A    between atoms: _128  and  _129
REMARK   55  A    between atoms: _129  and  _130
REMARK   56  A    between atoms: _130  and  _131
REMARK   57  A    between atoms: _131  and  _132
REMARK   58  A    between atoms: _136  and  _138
REMARK   59  A    between atoms: _138  and  _139
REMARK   60  A    between atoms: _138  and  _141
REMARK   61  A    between atoms: _141  and  _142
REMARK   62  A    between atoms: _142  and  _143
REMARK   63  A    between atoms: _145  and  _147
REMARK   64  A    between atoms: _147  and  _148
REMARK   65  A    between atoms: _147  and  _150
REMARK   66  A    between atoms: _153  and  _155
REMARK   67  A    between atoms: _155  and  _156
REMARK   68  A    between atoms: _155  and  _158
REMARK   69  A    between atoms: _158  and  _159
REMARK   70  A    between atoms: _159  and  _160
REMARK   71  A    between atoms: _160  and  _161
REMARK   72  A    between atoms: _161  and  _162
REMARK   73  A    between atoms: _166  and  _168
REMARK   74  A    between atoms: _168  and  _169
REMARK   75  A    between atoms: _168  and  _171
REMARK   76  A    between atoms: _171  and  _172
REMARK   77  A    between atoms: _175  and  _177
REMARK   78  A    between atoms: _177  and  _178
REMARK   79  A    between atoms: _177  and  _180
REMARK   80  A    between atoms: _180  and  _181
REMARK   81  A    between atoms: _184  and  _186
REMARK   82  A    between atoms: _186  and  _187
REMARK   83  A    between atoms: _186  and  _189
REMARK   84  A    between atoms: _189  and  _190
REMARK   85  A    between atoms: _190  and  _191
REMARK   86  A    between atoms: _193  and  _195
REMARK   87  A    between atoms: _195  and  _196
REMARK   88  A    between atoms: _195  and  _198
REMARK   89  A    between atoms: _199  and  _200
REMARK   90  A    between atoms: _203  and  _205
REMARK   91  A    between atoms: _205  and  _206
REMARK   92  A    between atoms: _205  and  _208
REMARK   93  A    between atoms: _208  and  _209
REMARK   94  A    between atoms: _212  and  _214
REMARK   95  A    between atoms: _214  and  _215
REMARK   96  A    between atoms: _214  and  _217
REMARK   97  A    between atoms: _219  and  _221
REMARK   98  A    between atoms: _221  and  _222
REMARK   99  A    between atoms: _221  and  _224
REMARK  100  A    between atoms: _224  and  _225
REMARK  101  A    between atoms: _228  and  _230
REMARK  102  A    between atoms: _230  and  _231
REMARK  103  A    between atoms: _230  and  _233
REMARK  104  A    between atoms: _233  and  _234
REMARK  105  A    between atoms: _237  and  _239
REMARK  106  A    between atoms: _239  and  _240
REMARK  107  A    between atoms: _242  and  _244
REMARK  108  A    between atoms: _244  and  _245
REMARK  109  A    between atoms: _244  and  _247
REMARK  110  A    between atoms: _247  and  _248
REMARK  111  A    between atoms: _248  and  _249
REMARK  112  A    between atoms: _252  and  _254
REMARK  113  A    between atoms: _254  and  _255
REMARK  114  A    between atoms: _254  and  _257
REMARK  115  A    between atoms: _257  and  _258
REMARK  116  A    between atoms: _261  and  _263
REMARK  117  A    between atoms: _263  and  _264
REMARK  118  A    between atoms: _263  and  _266
REMARK  119  A    between atoms: _266  and  _267
REMARK  120  A    between atoms: _267  and  _268
REMARK  121  A    between atoms: _268  and  _269
REMARK  122  A    between atoms: _278  and  _280
REMARK  123  A    between atoms: _280  and  _281
REMARK  124  A    between atoms: _280  and  _283
REMARK  125  A    between atoms: _283  and  _284
REMARK  126  A    between atoms: _286  and  _288
REMARK  127  A    between atoms: _288  and  _289
REMARK  128  A    between atoms: _288  and  _291
REMARK  129  A    between atoms: _291  and  _292
REMARK  130  A    between atoms: _297  and  _299
REMARK  131  A    between atoms: _299  and  _300
REMARK  132  A    between atoms: _299  and  _302
REMARK  133  A    between atoms: _302  and  _303
REMARK  134  A    between atoms: _306  and  _308
REMARK  135  A    between atoms: _308  and  _309
REMARK  136  A    between atoms: _312  and  _314
REMARK  137  A    between atoms: _314  and  _315
REMARK  138  A    between atoms: _318  and  _320
REMARK  139  A    between atoms: _320  and  _321
REMARK  140  A    between atoms: _320  and  _323
REMARK  141  A    between atoms: _323  and  _324
REMARK  142  A    between atoms: _324  and  _325
REMARK  143  A    between atoms: _325  and  _326
REMARK  144  A    between atoms: _335  and  _337
REMARK  145  A    between atoms: _337  and  _338
REMARK  146  A    between atoms: _337  and  _340
REMARK  147  A    between atoms: _340  and  _341
REMARK  148  A    between atoms: _346  and  _348
REMARK  149  A    between atoms: _348  and  _349
REMARK  150  A    between atoms: _348  and  _351
REMARK  151  A    between atoms: _354  and  _356
REMARK  152  A    between atoms: _356  and  _357
REMARK  153  A    between atoms: _356  and  _359
REMARK  154  A    between atoms: _359  and  _360
REMARK  155  A    between atoms: _363  and  _365
REMARK  156  A    between atoms: _365  and  _366
REMARK  157  A    between atoms: _365  and  _368
REMARK  158  A    between atoms: _371  and  _373
REMARK  159  A    between atoms: _373  and  _374
REMARK  160  A    between atoms: _373  and  _376
REMARK  161  A    between atoms: _376  and  _377
REMARK  162  A    between atoms: _379  and  _381
REMARK  163  A    between atoms: _381  and  _382
REMARK  164  A    between atoms: _381  and  _384
REMARK  165  A    between atoms: _384  and  _385
REMARK  166  A    between atoms: _385  and  _386
REMARK  167  A    between atoms: _386  and  _387
REMARK  168  A    between atoms: _387  and  _388
REMARK  169  A    between atoms: _392  and  _394
REMARK  170  A    between atoms: _394  and  _395
REMARK  171  A    between atoms: _394  and  _397
REMARK  172  A    between atoms: _397  and  _398
REMARK  173  A    between atoms: _401  and  _403
REMARK  174  A    between atoms: _403  and  _404
REMARK  175  A    between atoms: _406  and  _408
REMARK  176  A    between atoms: _408  and  _409
REMARK  177  A    between atoms: _408  and  _411
REMARK  178  A    between atoms: _411  and  _412
REMARK  179  A    between atoms: _415  and  _417
REMARK  180  A    between atoms: _417  and  _418
REMARK  181  A    between atoms: _417  and  _420
REMARK  182  A    between atoms: _420  and  _421
REMARK  183  A    between atoms: _427  and  _429
REMARK  184  A    between atoms: _429  and  _430
REMARK  185  A    between atoms: _432  and  _434
REMARK  186  A    between atoms: _434  and  _435
REMARK  187  A    between atoms: _434  and  _437
REMARK  188  A    between atoms: _437  and  _438
REMARK  189  A    between atoms: _441  and  _443
REMARK  190  A    between atoms: _443  and  _444
REMARK  191  A    between atoms: _443  and  _446
REMARK  192  A    between atoms: _446  and  _447
REMARK  193  A    between atoms: _449  and  _451
REMARK  194  A    between atoms: _451  and  _452
REMARK  195  A    between atoms: _451  and  _454
REMARK  196  A    between atoms: _454  and  _455
REMARK  197  A    between atoms: _455  and  _456
REMARK  198  A    between atoms: _456  and  _457
REMARK  199  A    between atoms: _466  and  _468
REMARK  200  A    between atoms: _468  and  _469
REMARK  201  A    between atoms: _468  and  _471
REMARK  202  A    between atoms: _471  and  _472
REMARK  203  A    between atoms: _477  and  _478
REMARK  204  A    between atoms: _480  and  _482
REMARK  205  A    between atoms: _482  and  _483
REMARK  206  A    between atoms: _482  and  _485
REMARK  207  A    between atoms: _485  and  _486
REMARK  208  A    between atoms: _486  and  _487
REMARK                            x       y       z     vdW  Elec       q    Type
REMARK                         _______ _______ _______ _____ _____    ______ ____
ROOT
ATOM      1  C   ALA A   3      26.228  -0.775 -41.692  0.00  0.00    +0.241 C 
ATOM      2  O   ALA A   3      26.085   0.004 -40.746  0.00  0.00    -0.273 OA
ATOM      3  N   ILE A   4      26.309  -0.361 -42.960  0.00  0.00    -0.297 N 
ATOM      4  H   ILE A   4      26.416  -1.071 -43.713  0.00  0.00    +0.150 HD
ENDROOT
BRANCH   1   5
ATOM      5  CA  ALA A   3      26.394  -2.283 -41.413  0.00  0.00    +0.149 C 
ATOM      6  CB  ALA A   3      25.047  -2.904 -41.082  0.00  0.00    +0.031 C 
BRANCH   5   8
ATOM      7  C   VAL A   2      28.573  -2.703 -40.324  0.00  0.00    +0.241 C 
ATOM      8  N   ALA A   3      27.283  -2.338 -40.262  0.00  0.00    -0.297 N 
ATOM      9  H   ALA A   3      26.894  -2.078 -39.333  0.00  0.00    +0.150 HD
ATOM     10  O   VAL A   2      29.103  -3.129 -41.349  0.00  0.00    -0.273 OA
BRANCH   7  11
ATOM     11  CA  VAL A   2      29.397  -2.503 -39.047  0.00  0.00    +0.148 C 
BRANCH  11  14
ATOM     12  C   ALA A   1      31.007  -4.016 -38.017  0.00  0.00    +0.238 C 
ATOM     13  O   ALA A   1      30.329  -4.091 -36.993  0.00  0.00    -0.274 OA
ATOM     14  N   VAL A   2      30.645  -3.267 -39.060  0.00  0.00    -0.297 N 
ATOM     15  H   VAL A   2      31.261  -3.225 -39.897  0.00  0.00    +0.150 HD
BRANCH  12  16
ATOM     16  CA  ALA A   1      32.351  -4.743 -38.120  0.00  0.00    +0.145 C 
ATOM     17  CB  ALA A   1      32.117  -6.247 -38.205  0.00  0.00    +0.028 C 
BRANCH  16  18
ATOM     18  N   ALA A   1      33.174  -4.416 -36.943  0.00  0.00    -0.238 NA
ATOM     19  H   ALA A   1      33.277  -5.149 -36.213  0.00  0.00    +0.142 HD
ENDBRANCH  16  18
ENDBRANCH  12  16
ENDBRANCH  11  14
BRANCH  11  20
ATOM     20  CB  VAL A   2      29.691  -0.980 -38.807  0.00  0.00    +0.027 C 
ATOM     21  CG2 VAL A   2      30.205  -0.703 -37.394  0.00  0.00    +0.002 C 
ATOM     22  CG1 VAL A   2      30.655  -0.403 -39.858  0.00  0.00    +0.002 C 
ENDBRANCH  11  20
ENDBRANCH   7  11
ENDBRANCH   5   8
ENDBRANCH   1   5
BRANCH   3  23
ATOM     23  CA  ILE A   4      26.252   1.059 -43.330  0.00  0.00    +0.149 C 
BRANCH  23  24
ATOM     24  C   ILE A   4      25.122   1.284 -44.306  0.00  0.00    +0.241 C 
ATOM     25  N   LYS A   5      24.129   2.060 -43.897  0.00  0.00    -0.298 N 
ATOM     26  H   LYS A   5      24.144   2.412 -42.918  0.00  0.00    +0.150 HD
ATOM     27  O   ILE A   4      25.187   0.792 -45.430  0.00  0.00    -0.273 OA
BRANCH  25  28
ATOM     28  CA  LYS A   5      23.012   2.444 -44.761  0.00  0.00    +0.137 C 
BRANCH  28  29
ATOM     29  C   LYS A   5      23.431   3.683 -45.496  0.00  0.00    +0.227 C 
ATOM     30  O   LYS A   5      23.911   4.637 -44.878  0.00  0.00    -0.286 OA
ENDBRANCH  28  29
BRANCH  28  31
ATOM     31  CB  LYS A   5      21.752   2.741 -43.933  0.00  0.00    +0.028 C 
BRANCH  31  32
ATOM     32  CG  LYS A   5      21.101   1.496 -43.309  0.00  0.00    -0.000 C 
BRANCH  32  33
ATOM     33  CD  LYS A   5      20.053   1.877 -42.217  0.00  0.00    -0.024 C 
BRANCH  33  34
ATOM     34  CE  LYS A   5      18.873   2.679 -42.766  0.00  0.00    -0.086 C 
BRANCH  34  35
ATOM     35  NZ  LYS A   5      17.884   3.024 -41.691  0.00  0.00    +0.380 N 
ATOM     36  HZ1 LYS A   5      18.354   3.594 -40.959  0.00  0.00    -0.089 HD
ATOM     37  HZ2 LYS A   5      17.515   2.149 -41.267  0.00  0.00    -0.089 HD
ATOM     38  HZ3 LYS A   5      17.100   3.567 -42.105  0.00  0.00    -0.089 HD
ENDBRANCH  34  35
ENDBRANCH  33  34
ENDBRANCH  32  33
ENDBRANCH  31  32
ENDBRANCH  28  31
ENDBRANCH  25  28
ENDBRANCH  23  24
BRANCH  23  39
ATOM     39  CB  ILE A   4      27.607   1.523 -43.944  0.00  0.00    +0.027 C 
ATOM     40  CG2 ILE A   4      27.551   3.019 -44.378  0.00  0.00    +0.002 C 
BRANCH  39  41
ATOM     41  CG1 ILE A   4      28.789   1.234 -42.978  0.00  0.00    +0.002 C 
ATOM     42  CD1 ILE A   4      30.098   1.009 -43.678  0.00  0.00    +0.000 C 
ENDBRANCH  39  41
ENDBRANCH  23  39
ENDBRANCH   3  23
TORSDOF 18
REMARK  Name = ../refined-set-2016/4gu6/4gu6_pocket.pdb
REMARK  208 active torsions:
REMARK  status: ('A' for Active; 'I' for Inactive)
REMARK    1  A    between atoms: _1  and  _3
REMARK    2  A    between atoms: _3  and  _4
REMARK    3  A    between atoms: _3  and  _6
REMARK    4  A    between atoms: _8  and  _10
REMARK    5  A    between atoms: _10  and  _11
REMARK    6  A    between atoms: _10  and  _13
REMARK    7  A    between atoms: _13  and  _14
REMARK    8  A    between atoms: _17  and  _19
REMARK    9  A    between atoms: _19  and  _20
REMARK   10  A    between atoms: _22  and  _24
REMARK   11  A    between atoms: _24  and  _25
REMARK   12  A    between atoms: _24  and  _27
REMARK   13  A    between atoms: _27  and  _28
REMARK   14  A    between atoms: _28  and  _29
REMARK   15  A    between atoms: _32  and  _34
REMARK   16  A    between atoms: _34  and  _35
REMARK   17  A    between atoms: _37  and  _39
REMARK   18  A    between atoms: _39  and  _40
REMARK   19  A    between atoms: _39  and  _42
REMARK   20  A    between atoms: _42  and  _43
REMARK   21  A    between atoms: _43  and  _44
REMARK   22  A    between atoms: _49  and  _51
REMARK   23  A    between atoms: _51  and  _52
REMARK   24  A    between atoms: _54  and  _56
REMARK   25  A    between atoms: _56  and  _57
REMARK   26  A    between atoms: _56  and  _59
REMARK   27  A    between atoms: _59  and  _60
REMARK   28  A    between atoms: _63  and  _65
REMARK   29  A    between atoms: _65  and  _66
REMARK   30  A    between atoms: _65  and  _68
REMARK   31  A    between atoms: _71  and  _73
REMARK   32  A    between atoms: _73  and  _74
REMARK   33  A    between atoms: _73  and  _76
REMARK   34  A    between atoms: _76  and  _77
REMARK   35  A    between atoms: _82  and  _84
REMARK   36  A    between atoms: _84  and  _85
REMARK   37  A    between atoms: _84  and  _87
REMARK   38  A    between atoms: _87  and  _88
REMARK   39  A    between atoms: _88  and  _89
REMARK   40  A    between atoms: _94  and  _96
REMARK   41  A    between atoms: _96  and  _97
REMARK   42  A    between atoms: _100  and  _102
REMARK   43  A    between atoms: _102  and  _103
REMARK   44  A    between atoms: _102  and  _105
REMARK   45  A    between atoms: _108  and  _110
REMARK   46  A    between atoms: _110  and  _111
REMARK   47  A    between atoms: _114  and  _116
REMARK   48  A    between atoms: _116  and  _117
REMARK   49  A    between atoms: _116  and  _119
REMARK   50  A    between atoms: _119  and  _120
REMARK   51  A    between atoms: _123  and  _125
REMARK   52  A    between atoms: _125  and  _126
REMARK   53  A    between atoms: _125  and  _128
REMARK   54  A    between atoms: _128  and  _129
REMARK   55  A    between atoms: _129  and  _130
REMARK   56  A    between atoms: _130  and  _131
REMARK   57  A    between atoms: _131  and  _132
REMARK   58  A    between atoms: _136  and  _138
REMARK   59  A    between atoms: _138  and  _139
REMARK   60  A    between atoms: _138  and  _141
REMARK   61  A    between atoms: _141  and  _142
REMARK   62  A    between atoms: _142  and  _143
REMARK   63  A    between atoms: _145  and  _147
REMARK   64  A    between atoms: _147  and  _148
REMARK   65  A    between atoms: _147  and  _150
REMARK   66  A    between atoms: _153  and  _155
REMARK   67  A    between atoms: _155  and  _156
REMARK   68  A    between atoms: _155  and  _158
REMARK   69  A    between atoms: _158  and  _159
REMARK   70  A    between atoms: _159  and  _160
REMARK   71  A    between atoms: _160  and  _161
REMARK   72  A    between atoms: _161  and  _162
REMARK   73  A    between atoms: _166  and  _168
REMARK   74  A    between atoms: _168  and  _169
REMARK   75  A    between atoms: _168  and  _171
REMARK   76  A    between atoms: _171  and  _172
REMARK   77  A    between atoms: _175  and  _177
REMARK   78  A    between atoms: _177  and  _178
REMARK   79  A    between atoms: _177  and  _180
REMARK   80  A    between atoms: _180  and  _181
REMARK   81  A    between atoms: _184  and  _186
REMARK   82  A    between atoms: _186  and  _187
REMARK   83  A    between atoms: _186  and  _189
REMARK   84  A    between atoms: _189  and  _190
REMARK   85  A    between atoms: _190  and  _191
REMARK   86  A    between atoms: _193  and  _195
REMARK   87  A    between atoms: _195  and  _196
REMARK   88  A    between atoms: _195  and  _198
REMARK   89  A    between atoms: _199  and  _200
REMARK   90  A    between atoms: _203  and  _205
REMARK   91  A    between atoms: _205  and  _206
REMARK   92  A    between atoms: _205  and  _208
REMARK   93  A    between atoms: _208  and  _209
REMARK   94  A    between atoms: _212  and  _214
REMARK   95  A    between atoms: _214  and  _215
REMARK   96  A    between atoms: _214  and  _217
REMARK   97  A    between atoms: _219  and  _221
REMARK   98  A    between atoms: _221  and  _222
REMARK   99  A    between atoms: _221  and  _224
REMARK  100  A    between atoms: _224  and  _225
REMARK  101  A    between atoms: _228  and  _230
REMARK  102  A    between atoms: _230  and  _231
REMARK  103  A    between atoms: _230  and  _233
REMARK  104  A    between atoms: _233  and  _234
REMARK  105  A    between atoms: _237  and  _239
REMARK  106  A    between atoms: _239  and  _240
REMARK  107  A    between atoms: _242  and  _244
REMARK  108  A    between atoms: _244  and  _245
REMARK  109  A    between atoms: _244  and  _247
REMARK  110  A    between atoms: _247  and  _248
REMARK  111  A    between atoms: _248  and  _249
REMARK  112  A    between atoms: _252  and  _254
REMARK  113  A    between atoms: _254  and  _255
REMARK  114  A    between atoms: _254  and  _257
REMARK  115  A    between atoms: _257  and  _258
REMARK  116  A    between atoms: _261  and  _263
REMARK  117  A    between atoms: _263  and  _264
REMARK  118  A    between atoms: _263  and  _266
REMARK  119  A    between atoms: _266  and  _267
REMARK  120  A    between atoms: _267  and  _268
REMARK  121  A    between atoms: _268  and  _269
REMARK  122  A    between atoms: _278  and  _280
REMARK  123  A    between atoms: _280  and  _281
REMARK  124  A    between atoms: _280  and  _283
REMARK  125  A    between atoms: _283  and  _284
REMARK  126  A    between atoms: _286  and  _288
REMARK  127  A    between atoms: _288  and  _289
REMARK  128  A    between atoms: _288  and  _291
REMARK  129  A    between atoms: _291  and  _292
REMARK  130  A    between atoms: _297  and  _299
REMARK  131  A    between atoms: _299  and  _300
REMARK  132  A    between atoms: _299  and  _302
REMARK  133  A    between atoms: _302  and  _303
REMARK  134  A    between atoms: _306  and  _308
REMARK  135  A    between atoms: _308  and  _309
REMARK  136  A    between atoms: _312  and  _314
REMARK  137  A    between atoms: _314  and  _315
REMARK  138  A    between atoms: _318  and  _320
REMARK  139  A    between atoms: _320  and  _321
REMARK  140  A    between atoms: _320  and  _323
REMARK  141  A    between atoms: _323  and  _324
REMARK  142  A    between atoms: _324  and  _325
REMARK  143  A    between atoms: _325  and  _326
REMARK  144  A    between atoms: _335  and  _337
REMARK  145  A    between atoms: _337  and  _338
REMARK  146  A    between atoms: _337  and  _340
REMARK  147  A    between atoms: _340  and  _341
REMARK  148  A    between atoms: _346  and  _348
REMARK  149  A    between atoms: _348  and  _349
REMARK  150  A    between atoms: _348  and  _351
REMARK  151  A    between atoms: _354  and  _356
REMARK  152  A    between atoms: _356  and  _357
REMARK  153  A    between atoms: _356  and  _359
REMARK  154  A    between atoms: _359  and  _360
REMARK  155  A    between atoms: _363  and  _365
REMARK  156  A    between atoms: _365  and  _366
REMARK  157  A    between atoms: _365  and  _368
REMARK  158  A    between atoms: _371  and  _373
REMARK  159  A    between atoms: _373  and  _374
REMARK  160  A    between atoms: _373  and  _376
REMARK  161  A    between atoms: _376  and  _377
REMARK  162  A    between atoms: _379  and  _381
REMARK  163  A    between atoms: _381  and  _382
REMARK  164  A    between atoms: _381  and  _384
REMARK  165  A    between atoms: _384  and  _385
REMARK  166  A    between atoms: _385  and  _386
REMARK  167  A    between atoms: _386  and  _387
REMARK  168  A    between atoms: _387  and  _388
REMARK  169  A    between atoms: _392  and  _394
REMARK  170  A    between atoms: _394  and  _395
REMARK  171  A    between atoms: _394  and  _397
REMARK  172  A    between atoms: _397  and  _398
REMARK  173  A    between atoms: _401  and  _403
REMARK  174  A    between atoms: _403  and  _404
REMARK  175  A    between atoms: _406  and  _408
REMARK  176  A    between atoms: _408  and  _409
REMARK  177  A    between atoms: _408  and  _411
REMARK  178  A    between atoms: _411  and  _412
REMARK  179  A    between atoms: _415  and  _417
REMARK  180  A    between atoms: _417  and  _418
REMARK  181  A    between atoms: _417  and  _420
REMARK  182  A    between atoms: _420  and  _421
REMARK  183  A    between atoms: _427  and  _429
REMARK  184  A    between atoms: _429  and  _430
REMARK  185  A    between atoms: _432  and  _434
REMARK  186  A    between atoms: _434  and  _435
REMARK  187  A    between atoms: _434  and  _437
REMARK  188  A    between atoms: _437  and  _438
REMARK  189  A    between atoms: _441  and  _443
REMARK  190  A    between atoms: _443  and  _444
REMARK  191  A    between atoms: _443  and  _446
REMARK  192  A    between atoms: _446  and  _447
REMARK  193  A    between atoms: _449  and  _451
REMARK  194  A    between atoms: _451  and  _452
REMARK  195  A    between atoms: _451  and  _454
REMARK  196  A    between atoms: _454  and  _455
REMARK  197  A    between atoms: _455  and  _456
REMARK  198  A    between atoms: _456  and  _457
REMARK  199  A    between atoms: _466  and  _468
REMARK  200  A    between atoms: _468  and  _469
REMARK  201  A    between atoms: _468  and  _471
REMARK  202  A    between atoms: _471  and  _472
REMARK  203  A    between atoms: _477  and  _478
REMARK  204  A    between atoms: _480  and  _482
REMARK  205  A    between atoms: _482  and  _483
REMARK  206  A    between atoms: _482  and  _485
REMARK  207  A    between atoms: _485  and  _486
REMARK  208  A    between atoms: _486  and  _487
REMARK                            x       y       z     vdW  Elec       q    Type
REMARK                         _______ _______ _______ _____ _____    ______ ____
ROOT
ATOM      1  CA  MET A   1      16.913   3.353 -33.551  0.00  0.00    +0.134 C 
ENDROOT
BRANCH   1   2
ATOM      2  N   MET A   1      16.102   4.423 -34.136  0.00  0.00    -0.239 NA
ATOM      3  H   MET A   1      16.395   4.830 -35.047  0.00  0.00    +0.142 HD
ENDBRANCH   1   2
BRANCH   1   4
ATOM      4  C   MET A   1      17.663   3.807 -32.314  0.00  0.00    +0.224 C 
ATOM      5  O   MET A   1      17.926   2.994 -31.418  0.00  0.00    -0.287 OA
ENDBRANCH   1   4
BRANCH   1   6
ATOM      6  CB  MET A   1      17.896   2.774 -34.570  0.00  0.00    +0.037 C 
BRANCH   6   7
ATOM      7  CG  MET A   1      17.226   2.059 -35.769  0.00  0.00    +0.059 C 
BRANCH   7   8
ATOM      8  SD  MET A   1      15.878   0.900 -35.331  0.00  0.00    -0.139 S 
ATOM      9  CE  MET A   1      16.808  -0.372 -34.455  0.00  0.00    +0.069 C 
ENDBRANCH   7   8
ENDBRANCH   6   7
ENDBRANCH   1   6
TORSDOF 5
REMARK  Name = ../refined-set-2016/4gu6/4gu6_pocket.pdb
REMARK  208 active torsions:
REMARK  status: ('A' for Active; 'I' for Inactive)
REMARK    1  A    between atoms: _1  and  _3
REMARK    2  A    between atoms: _3  and  _4
REMARK    3  A    between atoms: _3  and  _6
REMARK    4  A    between atoms: _8  and  _10
REMARK    5  A    between atoms: _10  and  _11
REMARK    6  A    between atoms: _10  and  _13
REMARK    7  A    between atoms: _13  and  _14
REMARK    8  A    between atoms: _17  and  _19
REMARK    9  A    between atoms: _19  and  _20
REMARK   10  A    between atoms: _22  and  _24
REMARK   11  A    between atoms: _24  and  _25
REMARK   12  A    between atoms: _24  and  _27
REMARK   13  A    between atoms: _27  and  _28
REMARK   14  A    between atoms: _28  and  _29
REMARK   15  A    between atoms: _32  and  _34
REMARK   16  A    between atoms: _34  and  _35
REMARK   17  A    between atoms: _37  and  _39
REMARK   18  A    between atoms: _39  and  _40
REMARK   19  A    between atoms: _39  and  _42
REMARK   20  A    between atoms: _42  and  _43
REMARK   21  A    between atoms: _43  and  _44
REMARK   22  A    between atoms: _49  and  _51
REMARK   23  A    between atoms: _51  and  _52
REMARK   24  A    between atoms: _54  and  _56
REMARK   25  A    between atoms: _56  and  _57
REMARK   26  A    between atoms: _56  and  _59
REMARK   27  A    between atoms: _59  and  _60
REMARK   28  A    between atoms: _63  and  _65
REMARK   29  A    between atoms: _65  and  _66
REMARK   30  A    between atoms: _65  and  _68
REMARK   31  A    between atoms: _71  and  _73
REMARK   32  A    between atoms: _73  and  _74
REMARK   33  A    between atoms: _73  and  _76
REMARK   34  A    between atoms: _76  and  _77
REMARK   35  A    between atoms: _82  and  _84
REMARK   36  A    between atoms: _84  and  _85
REMARK   37  A    between atoms: _84  and  _87
REMARK   38  A    between atoms: _87  and  _88
REMARK   39  A    between atoms: _88  and  _89
REMARK   40  A    between atoms: _94  and  _96
REMARK   41  A    between atoms: _96  and  _97
REMARK   42  A    between atoms: _100  and  _102
REMARK   43  A    between atoms: _102  and  _103
REMARK   44  A    between atoms: _102  and  _105
REMARK   45  A    between atoms: _108  and  _110
REMARK   46  A    between atoms: _110  and  _111
REMARK   47  A    between atoms: _114  and  _116
REMARK   48  A    between atoms: _116  and  _117
REMARK   49  A    between atoms: _116  and  _119
REMARK   50  A    between atoms: _119  and  _120
REMARK   51  A    between atoms: _123  and  _125
REMARK   52  A    between atoms: _125  and  _126
REMARK   53  A    between atoms: _125  and  _128
REMARK   54  A    between atoms: _128  and  _129
REMARK   55  A    between atoms: _129  and  _130
REMARK   56  A    between atoms: _130  and  _131
REMARK   57  A    between atoms: _131  and  _132
REMARK   58  A    between atoms: _136  and  _138
REMARK   59  A    between atoms: _138  and  _139
REMARK   60  A    between atoms: _138  and  _141
REMARK   61  A    between atoms: _141  and  _142
REMARK   62  A    between atoms: _142  and  _143
REMARK   63  A    between atoms: _145  and  _147
REMARK   64  A    between atoms: _147  and  _148
REMARK   65  A    between atoms: _147  and  _150
REMARK   66  A    between atoms: _153  and  _155
REMARK   67  A    between atoms: _155  and  _156
REMARK   68  A    between atoms: _155  and  _158
REMARK   69  A    between atoms: _158  and  _159
REMARK   70  A    between atoms: _159  and  _160
REMARK   71  A    between atoms: _160  and  _161
REMARK   72  A    between atoms: _161  and  _162
REMARK   73  A    between atoms: _166  and  _168
REMARK   74  A    between atoms: _168  and  _169
REMARK   75  A    between atoms: _168  and  _171
REMARK   76  A    between atoms: _171  and  _172
REMARK   77  A    between atoms: _175  and  _177
REMARK   78  A    between atoms: _177  and  _178
REMARK   79  A    between atoms: _177  and  _180
REMARK   80  A    between atoms: _180  and  _181
REMARK   81  A    between atoms: _184  and  _186
REMARK   82  A    between atoms: _186  and  _187
REMARK   83  A    between atoms: _186  and  _189
REMARK   84  A    between atoms: _189  and  _190
REMARK   85  A    between atoms: _190  and  _191
REMARK   86  A    between atoms: _193  and  _195
REMARK   87  A    between atoms: _195  and  _196
REMARK   88  A    between atoms: _195  and  _198
REMARK   89  A    between atoms: _199  and  _200
REMARK   90  A    between atoms: _203  and  _205
REMARK   91  A    between atoms: _205  and  _206
REMARK   92  A    between atoms: _205  and  _208
REMARK   93  A    between atoms: _208  and  _209
REMARK   94  A    between atoms: _212  and  _214
REMARK   95  A    between atoms: _214  and  _215
REMARK   96  A    between atoms: _214  and  _217
REMARK   97  A    between atoms: _219  and  _221
REMARK   98  A    between atoms: _221  and  _222
REMARK   99  A    between atoms: _221  and  _224
REMARK  100  A    between atoms: _224  and  _225
REMARK  101  A    between atoms: _228  and  _230
REMARK  102  A    between atoms: _230  and  _231
REMARK  103  A    between atoms: _230  and  _233
REMARK  104  A    between atoms: _233  and  _234
REMARK  105  A    between atoms: _237  and  _239
REMARK  106  A    between atoms: _239  and  _240
REMARK  107  A    between atoms: _242  and  _244
REMARK  108  A    between atoms: _244  and  _245
REMARK  109  A    between atoms: _244  and  _247
REMARK  110  A    between atoms: _247  and  _248
REMARK  111  A    between atoms: _248  and  _249
REMARK  112  A    between atoms: _252  and  _254
REMARK  113  A    between atoms: _254  and  _255
REMARK  114  A    between atoms: _254  and  _257
REMARK  115  A    between atoms: _257  and  _258
REMARK  116  A    between atoms: _261  and  _263
REMARK  117  A    between atoms: _263  and  _264
REMARK  118  A    between atoms: _263  and  _266
REMARK  119  A    between atoms: _266  and  _267
REMARK  120  A    between atoms: _267  and  _268
REMARK  121  A    between atoms: _268  and  _269
REMARK  122  A    between atoms: _278  and  _280
REMARK  123  A    between atoms: _280  and  _281
REMARK  124  A    between atoms: _280  and  _283
REMARK  125  A    between atoms: _283  and  _284
REMARK  126  A    between atoms: _286  and  _288
REMARK  127  A    between atoms: _288  and  _289
REMARK  128  A    between atoms: _288  and  _291
REMARK  129  A    between atoms: _291  and  _292
REMARK  130  A    between atoms: _297  and  _299
REMARK  131  A    between atoms: _299  and  _300
REMARK  132  A    between atoms: _299  and  _302
REMARK  133  A    between atoms: _302  and  _303
REMARK  134  A    between atoms: _306  and  _308
REMARK  135  A    between atoms: _308  and  _309
REMARK  136  A    between atoms: _312  and  _314
REMARK  137  A    between atoms: _314  and  _315
REMARK  138  A    between atoms: _318  and  _320
REMARK  139  A    between atoms: _320  and  _321
REMARK  140  A    between atoms: _320  and  _323
REMARK  141  A    between atoms: _323  and  _324
REMARK  142  A    between atoms: _324  and  _325
REMARK  143  A    between atoms: _325  and  _326
REMARK  144  A    between atoms: _335  and  _337
REMARK  145  A    between atoms: _337  and  _338
REMARK  146  A    between atoms: _337  and  _340
REMARK  147  A    between atoms: _340  and  _341
REMARK  148  A    between atoms: _346  and  _348
REMARK  149  A    between atoms: _348  and  _349
REMARK  150  A    between atoms: _348  and  _351
REMARK  151  A    between atoms: _354  and  _356
REMARK  152  A    between atoms: _356  and  _357
REMARK  153  A    between atoms: _356  and  _359
REMARK  154  A    between atoms: _359  and  _360
REMARK  155  A    between atoms: _363  and  _365
REMARK  156  A    between atoms: _365  and  _366
REMARK  157  A    between atoms: _365  and  _368
REMARK  158  A    between atoms: _371  and  _373
REMARK  159  A    between atoms: _373  and  _374
REMARK  160  A    between atoms: _373  and  _376
REMARK  161  A    between atoms: _376  and  _377
REMARK  162  A    between atoms: _379  and  _381
REMARK  163  A    between atoms: _381  and  _382
REMARK  164  A    between atoms: _381  and  _384
REMARK  165  A    between atoms: _384  and  _385
REMARK  166  A    between atoms: _385  and  _386
REMARK  167  A    between atoms: _386  and  _387
REMARK  168  A    between atoms: _387  and  _388
REMARK  169  A    between atoms: _392  and  _394
REMARK  170  A    between atoms: _394  and  _395
REMARK  171  A    between atoms: _394  and  _397
REMARK  172  A    between atoms: _397  and  _398
REMARK  173  A    between atoms: _401  and  _403
REMARK  174  A    between atoms: _403  and  _404
REMARK  175  A    between atoms: _406  and  _408
REMARK  176  A    between atoms: _408  and  _409
REMARK  177  A    between atoms: _408  and  _411
REMARK  178  A    between atoms: _411  and  _412
REMARK  179  A    between atoms: _415  and  _417
REMARK  180  A    between atoms: _417  and  _418
REMARK  181  A    between atoms: _417  and  _420
REMARK  182  A    between atoms: _420  and  _421
REMARK  183  A    between atoms: _427  and  _429
REMARK  184  A    between atoms: _429  and  _430
REMARK  185  A    between atoms: _432  and  _434
REMARK  186  A    between atoms: _434  and  _435
REMARK  187  A    between atoms: _434  and  _437
REMARK  188  A    between atoms: _437  and  _438
REMARK  189  A    between atoms: _441  and  _443
REMARK  190  A    between atoms: _443  and  _444
REMARK  191  A    between atoms: _443  and  _446
REMARK  192  A    between atoms: _446  and  _447
REMARK  193  A    between atoms: _449  and  _451
REMARK  194  A    between atoms: _451  and  _452
REMARK  195  A    between atoms: _451  and  _454
REMARK  196  A    between atoms: _454  and  _455
REMARK  197  A    between atoms: _455  and  _456
REMARK  198  A    between atoms: _456  and  _457
REMARK  199  A    between atoms: _466  and  _468
REMARK  200  A    between atoms: _468  and  _469
REMARK  201  A    between atoms: _468  and  _471
REMARK  202  A    between atoms: _471  and  _472
REMARK  203  A    between atoms: _477  and  _478
REMARK  204  A    between atoms: _480  and  _482
REMARK  205  A    between atoms: _482  and  _483
REMARK  206  A    between atoms: _482  and  _485
REMARK  207  A    between atoms: _485  and  _486
REMARK  208  A    between atoms: _486  and  _487
REMARK                            x       y       z     vdW  Elec       q    Type
REMARK                         _______ _______ _______ _____ _____    ______ ____
ROOT
ATOM      1  CA  LYS A   2      22.238  -0.966 -32.092  0.00  0.00    +0.137 C 
ENDROOT
BRANCH   1   3
ATOM      2  C   VAL A   1      20.782  -2.610 -33.081  0.00  0.00    +0.238 C 
ATOM      3  N   LYS A   2      21.978  -2.293 -32.625  0.00  0.00    -0.298 N 
ATOM      4  H   LYS A   2      22.742  -2.999 -32.647  0.00  0.00    +0.150 HD
ATOM      5  O   VAL A   1      19.835  -1.815 -33.093  0.00  0.00    -0.274 OA
BRANCH   2   6
ATOM      6  CA  VAL A   1      20.609  -4.028 -33.595  0.00  0.00    +0.145 C 
BRANCH   6   7
ATOM      7  CB  VAL A   1      20.782  -4.120 -35.137  0.00  0.00    +0.025 C 
ATOM      8  CG2 VAL A   1      20.895  -5.569 -35.576  0.00  0.00    +0.002 C 
ATOM      9  CG1 VAL A   1      19.654  -3.416 -35.880  0.00  0.00    +0.002 C 
ENDBRANCH   6   7
BRANCH   6  10
ATOM     10  N   VAL A   1      19.361  -4.616 -33.068  0.00  0.00    -0.238 NA
ATOM     11  H   VAL A   1      18.653  -4.981 -33.737  0.00  0.00    +0.142 HD
ENDBRANCH   6  10
ENDBRANCH   2   6
ENDBRANCH   1   3
BRANCH   1  12
ATOM     12  C   LYS A   2      22.646   0.029 -33.173  0.00  0.00    +0.227 C 
ATOM     13  O   LYS A   2      23.402  -0.319 -34.070  0.00  0.00    -0.286 OA
ENDBRANCH   1  12
BRANCH   1  14
ATOM     14  CB  LYS A   2      23.390  -1.005 -31.055  0.00  0.00    +0.028 C 
BRANCH  14  15
ATOM     15  CG  LYS A   2      23.150  -1.969 -29.907  0.00  0.00    -0.000 C 
BRANCH  15  16
ATOM     16  CD  LYS A   2      24.127  -1.764 -28.764  0.00  0.00    -0.024 C 
BRANCH  16  17
ATOM     17  CE  LYS A   2      24.565  -3.085 -28.180  0.00  0.00    -0.086 C 
BRANCH  17  18
ATOM     18  NZ  LYS A   2      23.443  -3.800 -27.513  0.00  0.00    +0.380 N 
ATOM     19  HZ1 LYS A   2      23.069  -3.212 -26.741  0.00  0.00    -0.089 HD
ATOM     20  HZ2 LYS A   2      23.789  -4.701 -27.127  0.00  0.00    -0.089 HD
ATOM     21  HZ3 LYS A   2      22.690  -3.985 -28.206  0.00  0.00    -0.089 HD
ENDBRANCH  17  18
ENDBRANCH  16  17
ENDBRANCH  15  16
ENDBRANCH  14  15
ENDBRANCH   1  14
TORSDOF 10
REMARK  Name = ../refined-set-2016/4gu6/4gu6_pocket.pdb
REMARK  208 active torsions:
REMARK  status: ('A' for Active; 'I' for Inactive)
REMARK    1  A    between atoms: _1  and  _3
REMARK    2  A    between atoms: _3  and  _4
REMARK    3  A    between atoms: _3  and  _6
REMARK    4  A    between atoms: _8  and  _10
REMARK    5  A    between atoms: _10  and  _11
REMARK    6  A    between atoms: _10  and  _13
REMARK    7  A    between atoms: _13  and  _14
REMARK    8  A    between atoms: _17  and  _19
REMARK    9  A    between atoms: _19  and  _20
REMARK   10  A    between atoms: _22  and  _24
REMARK   11  A    between atoms: _24  and  _25
REMARK   12  A    between atoms: _24  and  _27
REMARK   13  A    between atoms: _27  and  _28
REMARK   14  A    between atoms: _28  and  _29
REMARK   15  A    between atoms: _32  and  _34
REMARK   16  A    between atoms: _34  and  _35
REMARK   17  A    between atoms: _37  and  _39
REMARK   18  A    between atoms: _39  and  _40
REMARK   19  A    between atoms: _39  and  _42
REMARK   20  A    between atoms: _42  and  _43
REMARK   21  A    between atoms: _43  and  _44
REMARK   22  A    between atoms: _49  and  _51
REMARK   23  A    between atoms: _51  and  _52
REMARK   24  A    between atoms: _54  and  _56
REMARK   25  A    between atoms: _56  and  _57
REMARK   26  A    between atoms: _56  and  _59
REMARK   27  A    between atoms: _59  and  _60
REMARK   28  A    between atoms: _63  and  _65
REMARK   29  A    between atoms: _65  and  _66
REMARK   30  A    between atoms: _65  and  _68
REMARK   31  A    between atoms: _71  and  _73
REMARK   32  A    between atoms: _73  and  _74
REMARK   33  A    between atoms: _73  and  _76
REMARK   34  A    between atoms: _76  and  _77
REMARK   35  A    between atoms: _82  and  _84
REMARK   36  A    between atoms: _84  and  _85
REMARK   37  A    between atoms: _84  and  _87
REMARK   38  A    between atoms: _87  and  _88
REMARK   39  A    between atoms: _88  and  _89
REMARK   40  A    between atoms: _94  and  _96
REMARK   41  A    between atoms: _96  and  _97
REMARK   42  A    between atoms: _100  and  _102
REMARK   43  A    between atoms: _102  and  _103
REMARK   44  A    between atoms: _102  and  _105
REMARK   45  A    between atoms: _108  and  _110
REMARK   46  A    between atoms: _110  and  _111
REMARK   47  A    between atoms: _114  and  _116
REMARK   48  A    between atoms: _116  and  _117
REMARK   49  A    between atoms: _116  and  _119
REMARK   50  A    between atoms: _119  and  _120
REMARK   51  A    between atoms: _123  and  _125
REMARK   52  A    between atoms: _125  and  _126
REMARK   53  A    between atoms: _125  and  _128
REMARK   54  A    between atoms: _128  and  _129
REMARK   55  A    between atoms: _129  and  _130
REMARK   56  A    between atoms: _130  and  _131
REMARK   57  A    between atoms: _131  and  _132
REMARK   58  A    between atoms: _136  and  _138
REMARK   59  A    between atoms: _138  and  _139
REMARK   60  A    between atoms: _138  and  _141
REMARK   61  A    between atoms: _141  and  _142
REMARK   62  A    between atoms: _142  and  _143
REMARK   63  A    between atoms: _145  and  _147
REMARK   64  A    between atoms: _147  and  _148
REMARK   65  A    between atoms: _147  and  _150
REMARK   66  A    between atoms: _153  and  _155
REMARK   67  A    between atoms: _155  and  _156
REMARK   68  A    between atoms: _155  and  _158
REMARK   69  A    between atoms: _158  and  _159
REMARK   70  A    between atoms: _159  and  _160
REMARK   71  A    between atoms: _160  and  _161
REMARK   72  A    between atoms: _161  and  _162
REMARK   73  A    between atoms: _166  and  _168
REMARK   74  A    between atoms: _168  and  _169
REMARK   75  A    between atoms: _168  and  _171
REMARK   76  A    between atoms: _171  and  _172
REMARK   77  A    between atoms: _175  and  _177
REMARK   78  A    between atoms: _177  and  _178
REMARK   79  A    between atoms: _177  and  _180
REMARK   80  A    between atoms: _180  and  _181
REMARK   81  A    between atoms: _184  and  _186
REMARK   82  A    between atoms: _186  and  _187
REMARK   83  A    between atoms: _186  and  _189
REMARK   84  A    between atoms: _189  and  _190
REMARK   85  A    between atoms: _190  and  _191
REMARK   86  A    between atoms: _193  and  _195
REMARK   87  A    between atoms: _195  and  _196
REMARK   88  A    between atoms: _195  and  _198
REMARK   89  A    between atoms: _199  and  _200
REMARK   90  A    between atoms: _203  and  _205
REMARK   91  A    between atoms: _205  and  _206
REMARK   92  A    between atoms: _205  and  _208
REMARK   93  A    between atoms: _208  and  _209
REMARK   94  A    between atoms: _212  and  _214
REMARK   95  A    between atoms: _214  and  _215
REMARK   96  A    between atoms: _214  and  _217
REMARK   97  A    between atoms: _219  and  _221
REMARK   98  A    between atoms: _221  and  _222
REMARK   99  A    between atoms: _221  and  _224
REMARK  100  A    between atoms: _224  and  _225
REMARK  101  A    between atoms: _228  and  _230
REMARK  102  A    between atoms: _230  and  _231
REMARK  103  A    between atoms: _230  and  _233
REMARK  104  A    between atoms: _233  and  _234
REMARK  105  A    between atoms: _237  and  _239
REMARK  106  A    between atoms: _239  and  _240
REMARK  107  A    between atoms: _242  and  _244
REMARK  108  A    between atoms: _244  and  _245
REMARK  109  A    between atoms: _244  and  _247
REMARK  110  A    between atoms: _247  and  _248
REMARK  111  A    between atoms: _248  and  _249
REMARK  112  A    between atoms: _252  and  _254
REMARK  113  A    between atoms: _254  and  _255
REMARK  114  A    between atoms: _254  and  _257
REMARK  115  A    between atoms: _257  and  _258
REMARK  116  A    between atoms: _261  and  _263
REMARK  117  A    between atoms: _263  and  _264
REMARK  118  A    between atoms: _263  and  _266
REMARK  119  A    between atoms: _266  and  _267
REMARK  120  A    between atoms: _267  and  _268
REMARK  121  A    between atoms: _268  and  _269
REMARK  122  A    between atoms: _278  and  _280
REMARK  123  A    between atoms: _280  and  _281
REMARK  124  A    between atoms: _280  and  _283
REMARK  125  A    between atoms: _283  and  _284
REMARK  126  A    between atoms: _286  and  _288
REMARK  127  A    between atoms: _288  and  _289
REMARK  128  A    between atoms: _288  and  _291
REMARK  129  A    between atoms: _291  and  _292
REMARK  130  A    between atoms: _297  and  _299
REMARK  131  A    between atoms: _299  and  _300
REMARK  132  A    between atoms: _299  and  _302
REMARK  133  A    between atoms: _302  and  _303
REMARK  134  A    between atoms: _306  and  _308
REMARK  135  A    between atoms: _308  and  _309
REMARK  136  A    between atoms: _312  and  _314
REMARK  137  A    between atoms: _314  and  _315
REMARK  138  A    between atoms: _318  and  _320
REMARK  139  A    between atoms: _320  and  _321
REMARK  140  A    between atoms: _320  and  _323
REMARK  141  A    between atoms: _323  and  _324
REMARK  142  A    between atoms: _324  and  _325
REMARK  143  A    between atoms: _325  and  _326
REMARK  144  A    between atoms: _335  and  _337
REMARK  145  A    between atoms: _337  and  _338
REMARK  146  A    between atoms: _337  and  _340
REMARK  147  A    between atoms: _340  and  _341
REMARK  148  A    between atoms: _346  and  _348
REMARK  149  A    between atoms: _348  and  _349
REMARK  150  A    between atoms: _348  and  _351
REMARK  151  A    between atoms: _354  and  _356
REMARK  152  A    between atoms: _356  and  _357
REMARK  153  A    between atoms: _356  and  _359
REMARK  154  A    between atoms: _359  and  _360
REMARK  155  A    between atoms: _363  and  _365
REMARK  156  A    between atoms: _365  and  _366
REMARK  157  A    between atoms: _365  and  _368
REMARK  158  A    between atoms: _371  and  _373
REMARK  159  A    between atoms: _373  and  _374
REMARK  160  A    between atoms: _373  and  _376
REMARK  161  A    between atoms: _376  and  _377
REMARK  162  A    between atoms: _379  and  _381
REMARK  163  A    between atoms: _381  and  _382
REMARK  164  A    between atoms: _381  and  _384
REMARK  165  A    between atoms: _384  and  _385
REMARK  166  A    between atoms: _385  and  _386
REMARK  167  A    between atoms: _386  and  _387
REMARK  168  A    between atoms: _387  and  _388
REMARK  169  A    between atoms: _392  and  _394
REMARK  170  A    between atoms: _394  and  _395
REMARK  171  A    between atoms: _394  and  _397
REMARK  172  A    between atoms: _397  and  _398
REMARK  173  A    between atoms: _401  and  _403
REMARK  174  A    between atoms: _403  and  _404
REMARK  175  A    between atoms: _406  and  _408
REMARK  176  A    between atoms: _408  and  _409
REMARK  177  A    between atoms: _408  and  _411
REMARK  178  A    between atoms: _411  and  _412
REMARK  179  A    between atoms: _415  and  _417
REMARK  180  A    between atoms: _417  and  _418
REMARK  181  A    between atoms: _417  and  _420
REMARK  182  A    between atoms: _420  and  _421
REMARK  183  A    between atoms: _427  and  _429
REMARK  184  A    between atoms: _429  and  _430
REMARK  185  A    between atoms: _432  and  _434
REMARK  186  A    between atoms: _434  and  _435
REMARK  187  A    between atoms: _434  and  _437
REMARK  188  A    between atoms: _437  and  _438
REMARK  189  A    between atoms: _441  and  _443
REMARK  190  A    between atoms: _443  and  _444
REMARK  191  A    between atoms: _443  and  _446
REMARK  192  A    between atoms: _446  and  _447
REMARK  193  A    between atoms: _449  and  _451
REMARK  194  A    between atoms: _451  and  _452
REMARK  195  A    between atoms: _451  and  _454
REMARK  196  A    between atoms: _454  and  _455
REMARK  197  A    between atoms: _455  and  _456
REMARK  198  A    between atoms: _456  and  _457
REMARK  199  A    between atoms: _466  and  _468
REMARK  200  A    between atoms: _468  and  _469
REMARK  201  A    between atoms: _468  and  _471
REMARK  202  A    between atoms: _471  and  _472
REMARK  203  A    between atoms: _477  and  _478
REMARK  204  A    between atoms: _480  and  _482
REMARK  205  A    between atoms: _482  and  _483
REMARK  206  A    between atoms: _482  and  _485
REMARK  207  A    between atoms: _485  and  _486
REMARK  208  A    between atoms: _486  and  _487
REMARK                            x       y       z     vdW  Elec       q    Type
REMARK                         _______ _______ _______ _____ _____    ______ ____
ROOT
ATOM      1  CA  THR A   7      28.071 -11.402 -38.249  0.00  0.00    +0.176 C 
ENDROOT
BRANCH   1   2
ATOM      2  C   THR A   7      27.568 -12.666 -38.930  0.00  0.00    +0.243 C 
ATOM      3  N   LEU A   8      26.562 -13.354 -38.357  0.00  0.00    -0.297 N 
ATOM      4  H   LEU A   8      26.124 -12.995 -37.485  0.00  0.00    +0.150 HD
ATOM      5  O   THR A   7      28.088 -13.001 -39.989  0.00  0.00    -0.273 OA
BRANCH   3   6
ATOM      6  CA  LEU A   8      26.078 -14.607 -38.952  0.00  0.00    +0.149 C 
BRANCH   6   7
ATOM      7  C   LEU A   8      24.960 -14.490 -39.991  0.00  0.00    +0.241 C 
ATOM      8  N   GLY A   9      24.570 -13.261 -40.284  0.00  0.00    -0.295 N 
ATOM      9  H   GLY A   9      24.980 -12.470 -39.747  0.00  0.00    +0.150 HD
ATOM     10  O   LEU A   8      24.480 -15.498 -40.519  0.00  0.00    -0.273 OA
BRANCH   8  11
ATOM     11  CA  GLY A   9      23.597 -12.962 -41.320  0.00  0.00    +0.176 C 
BRANCH  11  12
ATOM     12  C   GLY A   9      22.136 -13.141 -41.007  0.00  0.00    +0.243 C 
ATOM     13  O   GLY A   9      21.734 -13.095 -39.850  0.00  0.00    -0.273 OA
ATOM     14  N   GLU A  10      21.337 -13.304 -42.079  0.00  0.00    -0.297 N 
ATOM     15  H   GLU A  10      21.799 -13.349 -43.010  0.00  0.00    +0.150 HD
BRANCH  14  16
ATOM     16  CA  GLU A  10      19.881 -13.423 -42.055  0.00  0.00    +0.149 C 
BRANCH  16  17
ATOM     17  C   GLU A  10      19.416 -14.693 -41.383  0.00  0.00    +0.241 C 
ATOM     18  N   LEU A  11      18.362 -14.589 -40.562  0.00  0.00    -0.297 N 
ATOM     19  H   LEU A  11      17.907 -13.666 -40.414  0.00  0.00    +0.150 HD
ATOM     20  O   GLU A  10      19.979 -15.765 -41.610  0.00  0.00    -0.273 OA
BRANCH  18  21
ATOM     21  CA  LEU A  11      17.848 -15.783 -39.869  0.00  0.00    +0.149 C 
BRANCH  21  22
ATOM     22  C   LEU A  11      17.320 -16.882 -40.809  0.00  0.00    +0.241 C 
ATOM     23  O   LEU A  11      17.589 -18.049 -40.558  0.00  0.00    -0.273 OA
ATOM     24  N   ARG A  12      16.595 -16.529 -41.857  0.00  0.00    -0.297 N 
ATOM     25  H   ARG A  12      16.422 -15.522 -42.049  0.00  0.00    +0.150 HD
BRANCH  24  26
ATOM     26  CA  ARG A  12      16.028 -17.555 -42.759  0.00  0.00    +0.149 C 
BRANCH  26  27
ATOM     27  C   ARG A  12      17.123 -18.440 -43.355  0.00  0.00    +0.241 C 
ATOM     28  O   ARG A  12      16.978 -19.662 -43.325  0.00  0.00    -0.273 OA
ATOM     29  N   SER A  13      18.227 -17.831 -43.863  0.00  0.00    -0.296 N 
ATOM     30  H   SER A  13      18.284 -16.793 -43.847  0.00  0.00    +0.150 HD
BRANCH  29  31
ATOM     31  CA  SER A  13      19.345 -18.600 -44.436  0.00  0.00    +0.166 C 
BRANCH  31  32
ATOM     32  CB  SER A  13      20.018 -19.454 -43.375  0.00  0.00    +0.229 C 
ATOM     33  OG  SER A  13      20.320 -20.622 -43.629  0.00  0.00    -0.286 OA
ENDBRANCH  31  32
BRANCH  31  34
ATOM     34  C   SER A  13      20.361 -17.673 -45.093  0.00  0.00    +0.165 C 
BRANCH  34  35
ATOM     35  O   SER A  13      19.761 -16.973 -46.170  0.00  0.00    -0.380 OA
ATOM     36  H   SER A  13      19.003 -16.435 -45.831  0.00  0.00    +0.211 HD
ENDBRANCH  34  35
ENDBRANCH  31  34
ENDBRANCH  29  31
ENDBRANCH  26  27
BRANCH  26  37
ATOM     37  CB  ARG A  12      15.137 -16.941 -43.858  0.00  0.00    +0.033 C 
BRANCH  37  38
ATOM     38  CG  ARG A  12      13.816 -16.318 -43.320  0.00  0.00    +0.045 C 
BRANCH  38  39
ATOM     39  CD  ARG A  12      12.814 -15.983 -44.432  0.00  0.00    +0.174 C 
BRANCH  39  40
ATOM     40  NE  ARG A  12      12.477 -17.207 -45.164  0.00  0.00    -0.265 N 
ATOM     41  HE  ARG A  12      11.938 -17.936 -44.654  0.00  0.00    +0.259 HD
ATOM     42  CZ  ARG A  12      12.805 -17.461 -46.429  0.00  0.00    +0.342 C 
ATOM     43  NH2 ARG A  12      12.506 -18.632 -46.973  0.00  0.00    -0.292 N 
ATOM     44 HH21 ARG A  12      12.014 -19.356 -46.411  0.00  0.00    +0.255 HD
ATOM     45 HH22 ARG A  12      12.764 -18.827 -47.961  0.00  0.00    +0.255 HD
ATOM     46  NH1 ARG A  12      13.388 -16.530 -47.171  0.00  0.00    -0.292 N 
ATOM     47 HH11 ARG A  12      13.592 -15.594 -46.766  0.00  0.00    +0.255 HD
ATOM     48 HH12 ARG A  12      13.641 -16.735 -48.159  0.00  0.00    +0.255 HD
ENDBRANCH  39  40
ENDBRANCH  38  39
ENDBRANCH  37  38
ENDBRANCH  26  37
ENDBRANCH  24  26
ENDBRANCH  21  22
BRANCH  21  49
ATOM     49  CB  LEU A  11      16.784 -15.404 -38.827  0.00  0.00    +0.029 C 
BRANCH  49  50
ATOM     50  CG  LEU A  11      16.142 -16.569 -38.052  0.00  0.00    +0.002 C 
ATOM     51  CD2 LEU A  11      17.164 -17.262 -37.132  0.00  0.00    +0.000 C 
ATOM     52  CD1 LEU A  11      14.890 -16.069 -37.271  0.00  0.00    +0.000 C 
ENDBRANCH  49  50
ENDBRANCH  21  49
ENDBRANCH  18  21
ENDBRANCH  16  17
BRANCH  16  53
ATOM     53  CB  GLU A  10      19.311 -13.304 -43.478  0.00  0.00    +0.041 C 
BRANCH  53  54
ATOM     54  CG  GLU A  10      19.506 -11.908 -44.068  0.00  0.00    +0.116 C 
BRANCH  54  55
ATOM     55  CD  GLU A  10      19.245 -11.737 -45.555  0.00  0.00    +0.365 C 
ATOM     56  OE2 GLU A  10      19.228 -10.571 -46.012  0.00  0.00    -0.246 OA
ATOM     57  OE1 GLU A  10      19.092 -12.756 -46.268  0.00  0.00    -0.246 OA
ENDBRANCH  54  55
ENDBRANCH  53  54
ENDBRANCH  16  53
ENDBRANCH  14  16
ENDBRANCH  11  12
ENDBRANCH   8  11
ENDBRANCH   6   7
BRANCH   6  58
ATOM     58  CB  LEU A   8      25.825 -15.700 -37.902  0.00  0.00    +0.029 C 
BRANCH  58  59
ATOM     59  CG  LEU A   8      27.013 -16.088 -37.025  0.00  0.00    +0.002 C 
ATOM     60  CD2 LEU A   8      26.632 -17.197 -36.063  0.00  0.00    +0.000 C 
ATOM     61  CD1 LEU A   8      28.247 -16.543 -37.885  0.00  0.00    +0.000 C 
ENDBRANCH  58  59
ENDBRANCH   6  58
ENDBRANCH   3   6
ENDBRANCH   1   2
BRANCH   1  63
ATOM     62  C   CYS A   6      26.000 -10.138 -37.876  0.00  0.00    +0.242 C 
ATOM     63  N   THR A   7      27.118 -10.674 -37.403  0.00  0.00    -0.295 N 
ATOM     64  H   THR A   7      27.328 -10.574 -36.389  0.00  0.00    +0.150 HD
ATOM     65  O   CYS A   6      25.623 -10.252 -39.050  0.00  0.00    -0.273 OA
BRANCH  62  66
ATOM     66  CA  CYS A   6      25.250  -9.254 -36.918  0.00  0.00    +0.160 C 
BRANCH  66  69
ATOM     67  C   LEU A   5      26.477  -7.112 -37.056  0.00  0.00    +0.241 C 
ATOM     68  O   LEU A   5      27.224  -7.417 -36.129  0.00  0.00    -0.273 OA
ATOM     69  N   CYS A   6      25.477  -7.900 -37.467  0.00  0.00    -0.296 N 
ATOM     70  H   CYS A   6      24.833  -7.546 -38.203  0.00  0.00    +0.150 HD
BRANCH  67  71
ATOM     71  CA  LEU A   5      26.717  -5.795 -37.815  0.00  0.00    +0.149 C 
BRANCH  71  73
ATOM     72  C   GLU A   4      25.788  -3.954 -36.542  0.00  0.00    +0.245 C 
ATOM     73  N   LEU A   5      26.838  -4.688 -36.859  0.00  0.00    -0.297 N 
ATOM     74  H   LEU A   5      27.761  -4.480 -36.427  0.00  0.00    +0.150 HD
ATOM     75  O   GLU A   4      24.685  -4.102 -37.084  0.00  0.00    -0.273 OA
BRANCH  72  76
ATOM     76  CA  GLU A   4      25.967  -2.870 -35.473  0.00  0.00    +0.172 C 
BRANCH  76  78
ATOM     77  C   MET A   3      25.556  -0.994 -37.032  0.00  0.00    +0.241 C 
ATOM     78  N   GLU A   4      25.230  -1.691 -35.929  0.00  0.00    -0.294 N 
ATOM     79  H   GLU A   4      24.411  -1.375 -35.371  0.00  0.00    +0.150 HD
ATOM     80  O   MET A   3      26.498  -1.281 -37.771  0.00  0.00    -0.273 OA
BRANCH  77  81
ATOM     81  CA  MET A   3      24.624   0.131 -37.402  0.00  0.00    +0.149 C 
BRANCH  81  84
ATOM     82  C   ILE A   2      25.528   2.350 -37.973  0.00  0.00    +0.241 C 
ATOM     83  O   ILE A   2      25.191   2.863 -36.907  0.00  0.00    -0.273 OA
ATOM     84  N   MET A   3      25.311   1.065 -38.293  0.00  0.00    -0.297 N 
ATOM     85  H   MET A   3      25.646   0.718 -39.215  0.00  0.00    +0.150 HD
BRANCH  82  86
ATOM     86  CA  ILE A   2      26.227   3.182 -39.014  0.00  0.00    +0.148 C 
BRANCH  86  88
ATOM     87  C   ILE A   1      24.650   4.282 -40.552  0.00  0.00    +0.238 C 
ATOM     88  N   ILE A   2      25.348   4.286 -39.412  0.00  0.00    -0.297 N 
ATOM     89  H   ILE A   2      25.264   5.108 -38.780  0.00  0.00    +0.150 HD
ATOM     90  O   ILE A   1      24.656   3.343 -41.360  0.00  0.00    -0.274 OA
BRANCH  87  91
ATOM     91  CA  ILE A   1      23.847   5.542 -40.844  0.00  0.00    +0.145 C 
BRANCH  91  92
ATOM     92  CB  ILE A   1      22.334   5.297 -40.763  0.00  0.00    +0.025 C 
ATOM     93  CG2 ILE A   1      21.967   4.598 -39.425  0.00  0.00    +0.002 C 
BRANCH  92  94
ATOM     94  CG1 ILE A   1      21.550   6.609 -40.968  0.00  0.00    +0.002 C 
ATOM     95  CD1 ILE A   1      20.032   6.359 -41.230  0.00  0.00    +0.000 C 
ENDBRANCH  92  94
ENDBRANCH  91  92
BRANCH  91  96
ATOM     96  N   ILE A   1      24.297   6.002 -42.149  0.00  0.00    -0.238 NA
ATOM     97  H   ILE A   1      24.126   5.394 -42.975  0.00  0.00    +0.142 HD
ENDBRANCH  91  96
ENDBRANCH  87  91
ENDBRANCH  86  88
BRANCH  86  98
ATOM     98  CB  ILE A   2      27.616   3.681 -38.515  0.00  0.00    +0.027 C 
ATOM     99  CG2 ILE A   2      28.572   2.494 -38.261  0.00  0.00    +0.002 C 
BRANCH  98 100
ATOM    100  CG1 ILE A   2      28.252   4.757 -39.453  0.00  0.00    +0.002 C 
ATOM    101  CD1 ILE A   2      28.446   4.363 -40.950  0.00  0.00    +0.000 C 
ENDBRANCH  98 100
ENDBRANCH  86  98
ENDBRANCH  82  86
ENDBRANCH  81  84
BRANCH  81 102
ATOM    102  CB  MET A   3      23.382  -0.501 -38.101  0.00  0.00    +0.041 C 
BRANCH 102 103
ATOM    103  CG  MET A   3      22.312   0.489 -38.609  0.00  0.00    +0.060 C 
BRANCH 103 104
ATOM    104  SD  MET A   3      21.530   1.470 -37.317  0.00  0.00    -0.139 S 
ATOM    105  CE  MET A   3      20.619   0.169 -36.391  0.00  0.00    +0.069 C 
ENDBRANCH 103 104
ENDBRANCH 102 103
ENDBRANCH  81 102
ENDBRANCH  77  81
ENDBRANCH  76  78
BRANCH  76 106
ATOM    106  CB  GLU A   4      25.344  -3.335 -34.116  0.00  0.00    +0.009 C 
ATOM    107  CG  GLU A   4      25.297  -4.834 -33.855  0.00  0.00    +0.084 C 
BRANCH 107 108
ATOM    108  CD  GLU A   4      24.577  -5.265 -32.593  0.00  0.00    +0.388 C 
ATOM    109  OE2 GLU A   4      24.896  -6.356 -32.080  0.00  0.00    -0.241 OA
ATOM    110  OE1 GLU A   4      23.705  -4.511 -32.104  0.00  0.00    -0.241 OA
ENDBRANCH 107 108
ENDBRANCH  76 106
ENDBRANCH  72  76
ENDBRANCH  71  73
BRANCH  71 111
ATOM    111  CB  LEU A   5      27.978  -5.963 -38.684  0.00  0.00    +0.029 C 
BRANCH 111 112
ATOM    112  CG  LEU A   5      27.861  -6.939 -39.874  0.00  0.00    +0.002 C 
ATOM    113  CD2 LEU A   5      29.229  -7.348 -40.369  0.00  0.00    +0.000 C 
ATOM    114  CD1 LEU A   5      27.059  -6.318 -41.027  0.00  0.00    +0.000 C 
ENDBRANCH 111 112
ENDBRANCH  71 111
ENDBRANCH  67  71
ENDBRANCH  66  69
BRANCH  66 115
ATOM    115  CB  CYS A   6      23.766  -9.589 -36.881  0.00  0.00    +0.098 C 
ATOM    116  SG  CYS A   6      22.863  -8.616 -35.668  0.00  0.00    -0.080 S 
ENDBRANCH  66 115
ENDBRANCH  62  66
ENDBRANCH   1  63
BRANCH   1 117
ATOM    117  CB  THR A   7      29.411 -11.575 -37.561  0.00  0.00    +0.137 C 
ATOM    118  CG2 THR A   7      30.098 -10.197 -37.262  0.00  0.00    +0.034 C 
BRANCH 117 119
ATOM    119  OG1 THR A   7      29.199 -12.361 -36.384  0.00  0.00    -0.382 OA
ATOM    120  HG1 THR A   7      28.563 -11.894 -35.787  0.00  0.00    +0.210 HD
ENDBRANCH 117 119
ENDBRANCH   1 117
TORSDOF 53
REMARK  Name = ../refined-set-2016/4gu6/4gu6_pocket.pdb
REMARK  208 active torsions:
REMARK  status: ('A' for Active; 'I' for Inactive)
REMARK    1  A    between atoms: _1  and  _3
REMARK    2  A    between atoms: _3  and  _4
REMARK    3  A    between atoms: _3  and  _6
REMARK    4  A    between atoms: _8  and  _10
REMARK    5  A    between atoms: _10  and  _11
REMARK    6  A    between atoms: _10  and  _13
REMARK    7  A    between atoms: _13  and  _14
REMARK    8  A    between atoms: _17  and  _19
REMARK    9  A    between atoms: _19  and  _20
REMARK   10  A    between atoms: _22  and  _24
REMARK   11  A    between atoms: _24  and  _25
REMARK   12  A    between atoms: _24  and  _27
REMARK   13  A    between atoms: _27  and  _28
REMARK   14  A    between atoms: _28  and  _29
REMARK   15  A    between atoms: _32  and  _34
REMARK   16  A    between atoms: _34  and  _35
REMARK   17  A    between atoms: _37  and  _39
REMARK   18  A    between atoms: _39  and  _40
REMARK   19  A    between atoms: _39  and  _42
REMARK   20  A    between atoms: _42  and  _43
REMARK   21  A    between atoms: _43  and  _44
REMARK   22  A    between atoms: _49  and  _51
REMARK   23  A    between atoms: _51  and  _52
REMARK   24  A    between atoms: _54  and  _56
REMARK   25  A    between atoms: _56  and  _57
REMARK   26  A    between atoms: _56  and  _59
REMARK   27  A    between atoms: _59  and  _60
REMARK   28  A    between atoms: _63  and  _65
REMARK   29  A    between atoms: _65  and  _66
REMARK   30  A    between atoms: _65  and  _68
REMARK   31  A    between atoms: _71  and  _73
REMARK   32  A    between atoms: _73  and  _74
REMARK   33  A    between atoms: _73  and  _76
REMARK   34  A    between atoms: _76  and  _77
REMARK   35  A    between atoms: _82  and  _84
REMARK   36  A    between atoms: _84  and  _85
REMARK   37  A    between atoms: _84  and  _87
REMARK   38  A    between atoms: _87  and  _88
REMARK   39  A    between atoms: _88  and  _89
REMARK   40  A    between atoms: _94  and  _96
REMARK   41  A    between atoms: _96  and  _97
REMARK   42  A    between atoms: _100  and  _102
REMARK   43  A    between atoms: _102  and  _103
REMARK   44  A    between atoms: _102  and  _105
REMARK   45  A    between atoms: _108  and  _110
REMARK   46  A    between atoms: _110  and  _111
REMARK   47  A    between atoms: _114  and  _116
REMARK   48  A    between atoms: _116  and  _117
REMARK   49  A    between atoms: _116  and  _119
REMARK   50  A    between atoms: _119  and  _120
REMARK   51  A    between atoms: _123  and  _125
REMARK   52  A    between atoms: _125  and  _126
REMARK   53  A    between atoms: _125  and  _128
REMARK   54  A    between atoms: _128  and  _129
REMARK   55  A    between atoms: _129  and  _130
REMARK   56  A    between atoms: _130  and  _131
REMARK   57  A    between atoms: _131  and  _132
REMARK   58  A    between atoms: _136  and  _138
REMARK   59  A    between atoms: _138  and  _139
REMARK   60  A    between atoms: _138  and  _141
REMARK   61  A    between atoms: _141  and  _142
REMARK   62  A    between atoms: _142  and  _143
REMARK   63  A    between atoms: _145  and  _147
REMARK   64  A    between atoms: _147  and  _148
REMARK   65  A    between atoms: _147  and  _150
REMARK   66  A    between atoms: _153  and  _155
REMARK   67  A    between atoms: _155  and  _156
REMARK   68  A    between atoms: _155  and  _158
REMARK   69  A    between atoms: _158  and  _159
REMARK   70  A    between atoms: _159  and  _160
REMARK   71  A    between atoms: _160  and  _161
REMARK   72  A    between atoms: _161  and  _162
REMARK   73  A    between atoms: _166  and  _168
REMARK   74  A    between atoms: _168  and  _169
REMARK   75  A    between atoms: _168  and  _171
REMARK   76  A    between atoms: _171  and  _172
REMARK   77  A    between atoms: _175  and  _177
REMARK   78  A    between atoms: _177  and  _178
REMARK   79  A    between atoms: _177  and  _180
REMARK   80  A    between atoms: _180  and  _181
REMARK   81  A    between atoms: _184  and  _186
REMARK   82  A    between atoms: _186  and  _187
REMARK   83  A    between atoms: _186  and  _189
REMARK   84  A    between atoms: _189  and  _190
REMARK   85  A    between atoms: _190  and  _191
REMARK   86  A    between atoms: _193  and  _195
REMARK   87  A    between atoms: _195  and  _196
REMARK   88  A    between atoms: _195  and  _198
REMARK   89  A    between atoms: _199  and  _200
REMARK   90  A    between atoms: _203  and  _205
REMARK   91  A    between atoms: _205  and  _206
REMARK   92  A    between atoms: _205  and  _208
REMARK   93  A    between atoms: _208  and  _209
REMARK   94  A    between atoms: _212  and  _214
REMARK   95  A    between atoms: _214  and  _215
REMARK   96  A    between atoms: _214  and  _217
REMARK   97  A    between atoms: _219  and  _221
REMARK   98  A    between atoms: _221  and  _222
REMARK   99  A    between atoms: _221  and  _224
REMARK  100  A    between atoms: _224  and  _225
REMARK  101  A    between atoms: _228  and  _230
REMARK  102  A    between atoms: _230  and  _231
REMARK  103  A    between atoms: _230  and  _233
REMARK  104  A    between atoms: _233  and  _234
REMARK  105  A    between atoms: _237  and  _239
REMARK  106  A    between atoms: _239  and  _240
REMARK  107  A    between atoms: _242  and  _244
REMARK  108  A    between atoms: _244  and  _245
REMARK  109  A    between atoms: _244  and  _247
REMARK  110  A    between atoms: _247  and  _248
REMARK  111  A    between atoms: _248  and  _249
REMARK  112  A    between atoms: _252  and  _254
REMARK  113  A    between atoms: _254  and  _255
REMARK  114  A    between atoms: _254  and  _257
REMARK  115  A    between atoms: _257  and  _258
REMARK  116  A    between atoms: _261  and  _263
REMARK  117  A    between atoms: _263  and  _264
REMARK  118  A    between atoms: _263  and  _266
REMARK  119  A    between atoms: _266  and  _267
REMARK  120  A    between atoms: _267  and  _268
REMARK  121  A    between atoms: _268  and  _269
REMARK  122  A    between atoms: _278  and  _280
REMARK  123  A    between atoms: _280  and  _281
REMARK  124  A    between atoms: _280  and  _283
REMARK  125  A    between atoms: _283  and  _284
REMARK  126  A    between atoms: _286  and  _288
REMARK  127  A    between atoms: _288  and  _289
REMARK  128  A    between atoms: _288  and  _291
REMARK  129  A    between atoms: _291  and  _292
REMARK  130  A    between atoms: _297  and  _299
REMARK  131  A    between atoms: _299  and  _300
REMARK  132  A    between atoms: _299  and  _302
REMARK  133  A    between atoms: _302  and  _303
REMARK  134  A    between atoms: _306  and  _308
REMARK  135  A    between atoms: _308  and  _309
REMARK  136  A    between atoms: _312  and  _314
REMARK  137  A    between atoms: _314  and  _315
REMARK  138  A    between atoms: _318  and  _320
REMARK  139  A    between atoms: _320  and  _321
REMARK  140  A    between atoms: _320  and  _323
REMARK  141  A    between atoms: _323  and  _324
REMARK  142  A    between atoms: _324  and  _325
REMARK  143  A    between atoms: _325  and  _326
REMARK  144  A    between atoms: _335  and  _337
REMARK  145  A    between atoms: _337  and  _338
REMARK  146  A    between atoms: _337  and  _340
REMARK  147  A    between atoms: _340  and  _341
REMARK  148  A    between atoms: _346  and  _348
REMARK  149  A    between atoms: _348  and  _349
REMARK  150  A    between atoms: _348  and  _351
REMARK  151  A    between atoms: _354  and  _356
REMARK  152  A    between atoms: _356  and  _357
REMARK  153  A    between atoms: _356  and  _359
REMARK  154  A    between atoms: _359  and  _360
REMARK  155  A    between atoms: _363  and  _365
REMARK  156  A    between atoms: _365  and  _366
REMARK  157  A    between atoms: _365  and  _368
REMARK  158  A    between atoms: _371  and  _373
REMARK  159  A    between atoms: _373  and  _374
REMARK  160  A    between atoms: _373  and  _376
REMARK  161  A    between atoms: _376  and  _377
REMARK  162  A    between atoms: _379  and  _381
REMARK  163  A    between atoms: _381  and  _382
REMARK  164  A    between atoms: _381  and  _384
REMARK  165  A    between atoms: _384  and  _385
REMARK  166  A    between atoms: _385  and  _386
REMARK  167  A    between atoms: _386  and  _387
REMARK  168  A    between atoms: _387  and  _388
REMARK  169  A    between atoms: _392  and  _394
REMARK  170  A    between atoms: _394  and  _395
REMARK  171  A    between atoms: _394  and  _397
REMARK  172  A    between atoms: _397  and  _398
REMARK  173  A    between atoms: _401  and  _403
REMARK  174  A    between atoms: _403  and  _404
REMARK  175  A    between atoms: _406  and  _408
REMARK  176  A    between atoms: _408  and  _409
REMARK  177  A    between atoms: _408  and  _411
REMARK  178  A    between atoms: _411  and  _412
REMARK  179  A    between atoms: _415  and  _417
REMARK  180  A    between atoms: _417  and  _418
REMARK  181  A    between atoms: _417  and  _420
REMARK  182  A    between atoms: _420  and  _421
REMARK  183  A    between atoms: _427  and  _429
REMARK  184  A    between atoms: _429  and  _430
REMARK  185  A    between atoms: _432  and  _434
REMARK  186  A    between atoms: _434  and  _435
REMARK  187  A    between atoms: _434  and  _437
REMARK  188  A    between atoms: _437  and  _438
REMARK  189  A    between atoms: _441  and  _443
REMARK  190  A    between atoms: _443  and  _444
REMARK  191  A    between atoms: _443  and  _446
REMARK  192  A    between atoms: _446  and  _447
REMARK  193  A    between atoms: _449  and  _451
REMARK  194  A    between atoms: _451  and  _452
REMARK  195  A    between atoms: _451  and  _454
REMARK  196  A    between atoms: _454  and  _455
REMARK  197  A    between atoms: _455  and  _456
REMARK  198  A    between atoms: _456  and  _457
REMARK  199  A    between atoms: _466  and  _468
REMARK  200  A    between atoms: _468  and  _469
REMARK  201  A    between atoms: _468  and  _471
REMARK  202  A    between atoms: _471  and  _472
REMARK  203  A    between atoms: _477  and  _478
REMARK  204  A    between atoms: _480  and  _482
REMARK  205  A    between atoms: _482  and  _483
REMARK  206  A    between atoms: _482  and  _485
REMARK  207  A    between atoms: _485  and  _486
REMARK  208  A    between atoms: _486  and  _487
REMARK                            x       y       z     vdW  Elec       q    Type
REMARK                         _______ _______ _______ _____ _____    ______ ____
ROOT
ATOM      1  CB  HIS A   1       7.676  -3.850 -35.045  0.00  0.00    +0.072 C 
ENDROOT
BRANCH   1   2
ATOM      2  CG  HIS A   1       8.843  -4.254 -35.867  0.00  0.00    +0.082 A 
ATOM      3  CD2 HIS A   1      10.152  -4.231 -35.547  0.00  0.00    +0.115 A 
ATOM      4  NE2 HIS A   1      10.825  -4.736 -36.625  0.00  0.00    -0.221 NA
ATOM      5  CE1 HIS A   1       9.914  -5.035 -37.560  0.00  0.00    +0.199 A 
ATOM      6  ND1 HIS A   1       8.689  -4.778 -37.142  0.00  0.00    -0.227 NA
ENDBRANCH   1   2
BRANCH   1   7
ATOM      7  CA  HIS A   1       7.050  -2.520 -35.455  0.00  0.00    +0.139 C 
BRANCH   7   8
ATOM      8  N   HIS A   1       6.027  -2.131 -34.478  0.00  0.00    -0.239 NA
ATOM      9  H   HIS A   1       5.667  -2.851 -33.819  0.00  0.00    +0.142 HD
ENDBRANCH   7   8
BRANCH   7  10
ATOM     10  C   HIS A   1       6.503  -2.583 -36.885  0.00  0.00    +0.224 C 
ATOM     11  O   HIS A   1       7.154  -2.081 -37.791  0.00  0.00    -0.287 OA
ENDBRANCH   7  10
ENDBRANCH   1   7
TORSDOF 4
REMARK  Name = ../refined-set-2016/4gu6/4gu6_pocket.pdb
REMARK  208 active torsions:
REMARK  status: ('A' for Active; 'I' for Inactive)
REMARK    1  A    between atoms: _1  and  _3
REMARK    2  A    between atoms: _3  and  _4
REMARK    3  A    between atoms: _3  and  _6
REMARK    4  A    between atoms: _8  and  _10
REMARK    5  A    between atoms: _10  and  _11
REMARK    6  A    between atoms: _10  and  _13
REMARK    7  A    between atoms: _13  and  _14
REMARK    8  A    between atoms: _17  and  _19
REMARK    9  A    between atoms: _19  and  _20
REMARK   10  A    between atoms: _22  and  _24
REMARK   11  A    between atoms: _24  and  _25
REMARK   12  A    between atoms: _24  and  _27
REMARK   13  A    between atoms: _27  and  _28
REMARK   14  A    between atoms: _28  and  _29
REMARK   15  A    between atoms: _32  and  _34
REMARK   16  A    between atoms: _34  and  _35
REMARK   17  A    between atoms: _37  and  _39
REMARK   18  A    between atoms: _39  and  _40
REMARK   19  A    between atoms: _39  and  _42
REMARK   20  A    between atoms: _42  and  _43
REMARK   21  A    between atoms: _43  and  _44
REMARK   22  A    between atoms: _49  and  _51
REMARK   23  A    between atoms: _51  and  _52
REMARK   24  A    between atoms: _54  and  _56
REMARK   25  A    between atoms: _56  and  _57
REMARK   26  A    between atoms: _56  and  _59
REMARK   27  A    between atoms: _59  and  _60
REMARK   28  A    between atoms: _63  and  _65
REMARK   29  A    between atoms: _65  and  _66
REMARK   30  A    between atoms: _65  and  _68
REMARK   31  A    between atoms: _71  and  _73
REMARK   32  A    between atoms: _73  and  _74
REMARK   33  A    between atoms: _73  and  _76
REMARK   34  A    between atoms: _76  and  _77
REMARK   35  A    between atoms: _82  and  _84
REMARK   36  A    between atoms: _84  and  _85
REMARK   37  A    between atoms: _84  and  _87
REMARK   38  A    between atoms: _87  and  _88
REMARK   39  A    between atoms: _88  and  _89
REMARK   40  A    between atoms: _94  and  _96
REMARK   41  A    between atoms: _96  and  _97
REMARK   42  A    between atoms: _100  and  _102
REMARK   43  A    between atoms: _102  and  _103
REMARK   44  A    between atoms: _102  and  _105
REMARK   45  A    between atoms: _108  and  _110
REMARK   46  A    between atoms: _110  and  _111
REMARK   47  A    between atoms: _114  and  _116
REMARK   48  A    between atoms: _116  and  _117
REMARK   49  A    between atoms: _116  and  _119
REMARK   50  A    between atoms: _119  and  _120
REMARK   51  A    between atoms: _123  and  _125
REMARK   52  A    between atoms: _125  and  _126
REMARK   53  A    between atoms: _125  and  _128
REMARK   54  A    between atoms: _128  and  _129
REMARK   55  A    between atoms: _129  and  _130
REMARK   56  A    between atoms: _130  and  _131
REMARK   57  A    between atoms: _131  and  _132
REMARK   58  A    between atoms: _136  and  _138
REMARK   59  A    between atoms: _138  and  _139
REMARK   60  A    between atoms: _138  and  _141
REMARK   61  A    between atoms: _141  and  _142
REMARK   62  A    between atoms: _142  and  _143
REMARK   63  A    between atoms: _145  and  _147
REMARK   64  A    between atoms: _147  and  _148
REMARK   65  A    between atoms: _147  and  _150
REMARK   66  A    between atoms: _153  and  _155
REMARK   67  A    between atoms: _155  and  _156
REMARK   68  A    between atoms: _155  and  _158
REMARK   69  A    between atoms: _158  and  _159
REMARK   70  A    between atoms: _159  and  _160
REMARK   71  A    between atoms: _160  and  _161
REMARK   72  A    between atoms: _161  and  _162
REMARK   73  A    between atoms: _166  and  _168
REMARK   74  A    between atoms: _168  and  _169
REMARK   75  A    between atoms: _168  and  _171
REMARK   76  A    between atoms: _171  and  _172
REMARK   77  A    between atoms: _175  and  _177
REMARK   78  A    between atoms: _177  and  _178
REMARK   79  A    between atoms: _177  and  _180
REMARK   80  A    between atoms: _180  and  _181
REMARK   81  A    between atoms: _184  and  _186
REMARK   82  A    between atoms: _186  and  _187
REMARK   83  A    between atoms: _186  and  _189
REMARK   84  A    between atoms: _189  and  _190
REMARK   85  A    between atoms: _190  and  _191
REMARK   86  A    between atoms: _193  and  _195
REMARK   87  A    between atoms: _195  and  _196
REMARK   88  A    between atoms: _195  and  _198
REMARK   89  A    between atoms: _199  and  _200
REMARK   90  A    between atoms: _203  and  _205
REMARK   91  A    between atoms: _205  and  _206
REMARK   92  A    between atoms: _205  and  _208
REMARK   93  A    between atoms: _208  and  _209
REMARK   94  A    between atoms: _212  and  _214
REMARK   95  A    between atoms: _214  and  _215
REMARK   96  A    between atoms: _214  and  _217
REMARK   97  A    between atoms: _219  and  _221
REMARK   98  A    between atoms: _221  and  _222
REMARK   99  A    between atoms: _221  and  _224
REMARK  100  A    between atoms: _224  and  _225
REMARK  101  A    between atoms: _228  and  _230
REMARK  102  A    between atoms: _230  and  _231
REMARK  103  A    between atoms: _230  and  _233
REMARK  104  A    between atoms: _233  and  _234
REMARK  105  A    between atoms: _237  and  _239
REMARK  106  A    between atoms: _239  and  _240
REMARK  107  A    between atoms: _242  and  _244
REMARK  108  A    between atoms: _244  and  _245
REMARK  109  A    between atoms: _244  and  _247
REMARK  110  A    between atoms: _247  and  _248
REMARK  111  A    between atoms: _248  and  _249
REMARK  112  A    between atoms: _252  and  _254
REMARK  113  A    between atoms: _254  and  _255
REMARK  114  A    between atoms: _254  and  _257
REMARK  115  A    between atoms: _257  and  _258
REMARK  116  A    between atoms: _261  and  _263
REMARK  117  A    between atoms: _263  and  _264
REMARK  118  A    between atoms: _263  and  _266
REMARK  119  A    between atoms: _266  and  _267
REMARK  120  A    between atoms: _267  and  _268
REMARK  121  A    between atoms: _268  and  _269
REMARK  122  A    between atoms: _278  and  _280
REMARK  123  A    between atoms: _280  and  _281
REMARK  124  A    between atoms: _280  and  _283
REMARK  125  A    between atoms: _283  and  _284
REMARK  126  A    between atoms: _286  and  _288
REMARK  127  A    between atoms: _288  and  _289
REMARK  128  A    between atoms: _288  and  _291
REMARK  129  A    between atoms: _291  and  _292
REMARK  130  A    between atoms: _297  and  _299
REMARK  131  A    between atoms: _299  and  _300
REMARK  132  A    between atoms: _299  and  _302
REMARK  133  A    between atoms: _302  and  _303
REMARK  134  A    between atoms: _306  and  _308
REMARK  135  A    between atoms: _308  and  _309
REMARK  136  A    between atoms: _312  and  _314
REMARK  137  A    between atoms: _314  and  _315
REMARK  138  A    between atoms: _318  and  _320
REMARK  139  A    between atoms: _320  and  _321
REMARK  140  A    between atoms: _320  and  _323
REMARK  141  A    between atoms: _323  and  _324
REMARK  142  A    between atoms: _324  and  _325
REMARK  143  A    between atoms: _325  and  _326
REMARK  144  A    between atoms: _335  and  _337
REMARK  145  A    between atoms: _337  and  _338
REMARK  146  A    between atoms: _337  and  _340
REMARK  147  A    between atoms: _340  and  _341
REMARK  148  A    between atoms: _346  and  _348
REMARK  149  A    between atoms: _348  and  _349
REMARK  150  A    between atoms: _348  and  _351
REMARK  151  A    between atoms: _354  and  _356
REMARK  152  A    between atoms: _356  and  _357
REMARK  153  A    between atoms: _356  and  _359
REMARK  154  A    between atoms: _359  and  _360
REMARK  155  A    between atoms: _363  and  _365
REMARK  156  A    between atoms: _365  and  _366
REMARK  157  A    between atoms: _365  and  _368
REMARK  158  A    between atoms: _371  and  _373
REMARK  159  A    between atoms: _373  and  _374
REMARK  160  A    between atoms: _373  and  _376
REMARK  161  A    between atoms: _376  and  _377
REMARK  162  A    between atoms: _379  and  _381
REMARK  163  A    between atoms: _381  and  _382
REMARK  164  A    between atoms: _381  and  _384
REMARK  165  A    between atoms: _384  and  _385
REMARK  166  A    between atoms: _385  and  _386
REMARK  167  A    between atoms: _386  and  _387
REMARK  168  A    between atoms: _387  and  _388
REMARK  169  A    between atoms: _392  and  _394
REMARK  170  A    between atoms: _394  and  _395
REMARK  171  A    between atoms: _394  and  _397
REMARK  172  A    between atoms: _397  and  _398
REMARK  173  A    between atoms: _401  and  _403
REMARK  174  A    between atoms: _403  and  _404
REMARK  175  A    between atoms: _406  and  _408
REMARK  176  A    between atoms: _408  and  _409
REMARK  177  A    between atoms: _408  and  _411
REMARK  178  A    between atoms: _411  and  _412
REMARK  179  A    between atoms: _415  and  _417
REMARK  180  A    between atoms: _417  and  _418
REMARK  181  A    between atoms: _417  and  _420
REMARK  182  A    between atoms: _420  and  _421
REMARK  183  A    between atoms: _427  and  _429
REMARK  184  A    between atoms: _429  and  _430
REMARK  185  A    between atoms: _432  and  _434
REMARK  186  A    between atoms: _434  and  _435
REMARK  187  A    between atoms: _434  and  _437
REMARK  188  A    between atoms: _437  and  _438
REMARK  189  A    between atoms: _441  and  _443
REMARK  190  A    between atoms: _443  and  _444
REMARK  191  A    between atoms: _443  and  _446
REMARK  192  A    between atoms: _446  and  _447
REMARK  193  A    between atoms: _449  and  _451
REMARK  194  A    between atoms: _451  and  _452
REMARK  195  A    between atoms: _451  and  _454
REMARK  196  A    between atoms: _454  and  _455
REMARK  197  A    between atoms: _455  and  _456
REMARK  198  A    between atoms: _456  and  _457
REMARK  199  A    between atoms: _466  and  _468
REMARK  200  A    between atoms: _468  and  _469
REMARK  201  A    between atoms: _468  and  _471
REMARK  202  A    between atoms: _471  and  _472
REMARK  203  A    between atoms: _477  and  _478
REMARK  204  A    between atoms: _480  and  _482
REMARK  205  A    between atoms: _482  and  _483
REMARK  206  A    between atoms: _482  and  _485
REMARK  207  A    between atoms: _485  and  _486
REMARK  208  A    between atoms: _486  and  _487
REMARK                            x       y       z     vdW  Elec       q    Type
REMARK                         _______ _______ _______ _____ _____    ______ ____
ROOT
ATOM      1  CA  ASP A   1       6.843  -6.126 -39.944  0.00  0.00    +0.144 C 
ENDROOT
BRANCH   1   2
ATOM      2  N   ASP A   1       6.385  -5.004 -39.091  0.00  0.00    -0.239 NA
ATOM      3  H   ASP A   1       6.994  -4.641 -38.330  0.00  0.00    +0.142 HD
ENDBRANCH   1   2
BRANCH   1   4
ATOM      4  C   ASP A   1       7.681  -7.167 -39.254  0.00  0.00    +0.225 C 
ATOM      5  O   ASP A   1       8.834  -7.383 -39.615  0.00  0.00    -0.287 OA
ENDBRANCH   1   4
BRANCH   1   6
ATOM      6  CB  ASP A   1       7.408  -5.752 -41.337  0.00  0.00    +0.139 C 
BRANCH   6   7
ATOM      7  CG  ASP A   1       7.344  -6.907 -42.380  0.00  0.00    +0.367 C 
ATOM      8  OD2 ASP A   1       6.591  -7.920 -42.140  0.00  0.00    -0.246 OA
ATOM      9  OD1 ASP A   1       8.076  -6.827 -43.414  0.00  0.00    -0.246 OA
ENDBRANCH   6   7
ENDBRANCH   1   6
TORSDOF 4
REMARK  Name = ../refined-set-2016/4gu6/4gu6_pocket.pdb
REMARK  208 active torsions:
REMARK  status: ('A' for Active; 'I' for Inactive)
REMARK    1  A    between atoms: _1  and  _3
REMARK    2  A    between atoms: _3  and  _4
REMARK    3  A    between atoms: _3  and  _6
REMARK    4  A    between atoms: _8  and  _10
REMARK    5  A    between atoms: _10  and  _11
REMARK    6  A    between atoms: _10  and  _13
REMARK    7  A    between atoms: _13  and  _14
REMARK    8  A    between atoms: _17  and  _19
REMARK    9  A    between atoms: _19  and  _20
REMARK   10  A    between atoms: _22  and  _24
REMARK   11  A    between atoms: _24  and  _25
REMARK   12  A    between atoms: _24  and  _27
REMARK   13  A    between atoms: _27  and  _28
REMARK   14  A    between atoms: _28  and  _29
REMARK   15  A    between atoms: _32  and  _34
REMARK   16  A    between atoms: _34  and  _35
REMARK   17  A    between atoms: _37  and  _39
REMARK   18  A    between atoms: _39  and  _40
REMARK   19  A    between atoms: _39  and  _42
REMARK   20  A    between atoms: _42  and  _43
REMARK   21  A    between atoms: _43  and  _44
REMARK   22  A    between atoms: _49  and  _51
REMARK   23  A    between atoms: _51  and  _52
REMARK   24  A    between atoms: _54  and  _56
REMARK   25  A    between atoms: _56  and  _57
REMARK   26  A    between atoms: _56  and  _59
REMARK   27  A    between atoms: _59  and  _60
REMARK   28  A    between atoms: _63  and  _65
REMARK   29  A    between atoms: _65  and  _66
REMARK   30  A    between atoms: _65  and  _68
REMARK   31  A    between atoms: _71  and  _73
REMARK   32  A    between atoms: _73  and  _74
REMARK   33  A    between atoms: _73  and  _76
REMARK   34  A    between atoms: _76  and  _77
REMARK   35  A    between atoms: _82  and  _84
REMARK   36  A    between atoms: _84  and  _85
REMARK   37  A    between atoms: _84  and  _87
REMARK   38  A    between atoms: _87  and  _88
REMARK   39  A    between atoms: _88  and  _89
REMARK   40  A    between atoms: _94  and  _96
REMARK   41  A    between atoms: _96  and  _97
REMARK   42  A    between atoms: _100  and  _102
REMARK   43  A    between atoms: _102  and  _103
REMARK   44  A    between atoms: _102  and  _105
REMARK   45  A    between atoms: _108  and  _110
REMARK   46  A    between atoms: _110  and  _111
REMARK   47  A    between atoms: _114  and  _116
REMARK   48  A    between atoms: _116  and  _117
REMARK   49  A    between atoms: _116  and  _119
REMARK   50  A    between atoms: _119  and  _120
REMARK   51  A    between atoms: _123  and  _125
REMARK   52  A    between atoms: _125  and  _126
REMARK   53  A    between atoms: _125  and  _128
REMARK   54  A    between atoms: _128  and  _129
REMARK   55  A    between atoms: _129  and  _130
REMARK   56  A    between atoms: _130  and  _131
REMARK   57  A    between atoms: _131  and  _132
REMARK   58  A    between atoms: _136  and  _138
REMARK   59  A    between atoms: _138  and  _139
REMARK   60  A    between atoms: _138  and  _141
REMARK   61  A    between atoms: _141  and  _142
REMARK   62  A    between atoms: _142  and  _143
REMARK   63  A    between atoms: _145  and  _147
REMARK   64  A    between atoms: _147  and  _148
REMARK   65  A    between atoms: _147  and  _150
REMARK   66  A    between atoms: _153  and  _155
REMARK   67  A    between atoms: _155  and  _156
REMARK   68  A    between atoms: _155  and  _158
REMARK   69  A    between atoms: _158  and  _159
REMARK   70  A    between atoms: _159  and  _160
REMARK   71  A    between atoms: _160  and  _161
REMARK   72  A    between atoms: _161  and  _162
REMARK   73  A    between atoms: _166  and  _168
REMARK   74  A    between atoms: _168  and  _169
REMARK   75  A    between atoms: _168  and  _171
REMARK   76  A    between atoms: _171  and  _172
REMARK   77  A    between atoms: _175  and  _177
REMARK   78  A    between atoms: _177  and  _178
REMARK   79  A    between atoms: _177  and  _180
REMARK   80  A    between atoms: _180  and  _181
REMARK   81  A    between atoms: _184  and  _186
REMARK   82  A    between atoms: _186  and  _187
REMARK   83  A    between atoms: _186  and  _189
REMARK   84  A    between atoms: _189  and  _190
REMARK   85  A    between atoms: _190  and  _191
REMARK   86  A    between atoms: _193  and  _195
REMARK   87  A    between atoms: _195  and  _196
REMARK   88  A    between atoms: _195  and  _198
REMARK   89  A    between atoms: _199  and  _200
REMARK   90  A    between atoms: _203  and  _205
REMARK   91  A    between atoms: _205  and  _206
REMARK   92  A    between atoms: _205  and  _208
REMARK   93  A    between atoms: _208  and  _209
REMARK   94  A    between atoms: _212  and  _214
REMARK   95  A    between atoms: _214  and  _215
REMARK   96  A    between atoms: _214  and  _217
REMARK   97  A    between atoms: _219  and  _221
REMARK   98  A    between atoms: _221  and  _222
REMARK   99  A    between atoms: _221  and  _224
REMARK  100  A    between atoms: _224  and  _225
REMARK  101  A    between atoms: _228  and  _230
REMARK  102  A    between atoms: _230  and  _231
REMARK  103  A    between atoms: _230  and  _233
REMARK  104  A    between atoms: _233  and  _234
REMARK  105  A    between atoms: _237  and  _239
REMARK  106  A    between atoms: _239  and  _240
REMARK  107  A    between atoms: _242  and  _244
REMARK  108  A    between atoms: _244  and  _245
REMARK  109  A    between atoms: _244  and  _247
REMARK  110  A    between atoms: _247  and  _248
REMARK  111  A    between atoms: _248  and  _249
REMARK  112  A    between atoms: _252  and  _254
REMARK  113  A    between atoms: _254  and  _255
REMARK  114  A    between atoms: _254  and  _257
REMARK  115  A    between atoms: _257  and  _258
REMARK  116  A    between atoms: _261  and  _263
REMARK  117  A    between atoms: _263  and  _264
REMARK  118  A    between atoms: _263  and  _266
REMARK  119  A    between atoms: _266  and  _267
REMARK  120  A    between atoms: _267  and  _268
REMARK  121  A    between atoms: _268  and  _269
REMARK  122  A    between atoms: _278  and  _280
REMARK  123  A    between atoms: _280  and  _281
REMARK  124  A    between atoms: _280  and  _283
REMARK  125  A    between atoms: _283  and  _284
REMARK  126  A    between atoms: _286  and  _288
REMARK  127  A    between atoms: _288  and  _289
REMARK  128  A    between atoms: _288  and  _291
REMARK  129  A    between atoms: _291  and  _292
REMARK  130  A    between atoms: _297  and  _299
REMARK  131  A    between atoms: _299  and  _300
REMARK  132  A    between atoms: _299  and  _302
REMARK  133  A    between atoms: _302  and  _303
REMARK  134  A    between atoms: _306  and  _308
REMARK  135  A    between atoms: _308  and  _309
REMARK  136  A    between atoms: _312  and  _314
REMARK  137  A    between atoms: _314  and  _315
REMARK  138  A    between atoms: _318  and  _320
REMARK  139  A    between atoms: _320  and  _321
REMARK  140  A    between atoms: _320  and  _323
REMARK  141  A    between atoms: _323  and  _324
REMARK  142  A    between atoms: _324  and  _325
REMARK  143  A    between atoms: _325  and  _326
REMARK  144  A    between atoms: _335  and  _337
REMARK  145  A    between atoms: _337  and  _338
REMARK  146  A    between atoms: _337  and  _340
REMARK  147  A    between atoms: _340  and  _341
REMARK  148  A    between atoms: _346  and  _348
REMARK  149  A    between atoms: _348  and  _349
REMARK  150  A    between atoms: _348  and  _351
REMARK  151  A    between atoms: _354  and  _356
REMARK  152  A    between atoms: _356  and  _357
REMARK  153  A    between atoms: _356  and  _359
REMARK  154  A    between atoms: _359  and  _360
REMARK  155  A    between atoms: _363  and  _365
REMARK  156  A    between atoms: _365  and  _366
REMARK  157  A    between atoms: _365  and  _368
REMARK  158  A    between atoms: _371  and  _373
REMARK  159  A    between atoms: _373  and  _374
REMARK  160  A    between atoms: _373  and  _376
REMARK  161  A    between atoms: _376  and  _377
REMARK  162  A    between atoms: _379  and  _381
REMARK  163  A    between atoms: _381  and  _382
REMARK  164  A    between atoms: _381  and  _384
REMARK  165  A    between atoms: _384  and  _385
REMARK  166  A    between atoms: _385  and  _386
REMARK  167  A    between atoms: _386  and  _387
REMARK  168  A    between atoms: _387  and  _388
REMARK  169  A    between atoms: _392  and  _394
REMARK  170  A    between atoms: _394  and  _395
REMARK  171  A    between atoms: _394  and  _397
REMARK  172  A    between atoms: _397  and  _398
REMARK  173  A    between atoms: _401  and  _403
REMARK  174  A    between atoms: _403  and  _404
REMARK  175  A    between atoms: _406  and  _408
REMARK  176  A    between atoms: _408  and  _409
REMARK  177  A    between atoms: _408  and  _411
REMARK  178  A    between atoms: _411  and  _412
REMARK  179  A    between atoms: _415  and  _417
REMARK  180  A    between atoms: _417  and  _418
REMARK  181  A    between atoms: _417  and  _420
REMARK  182  A    between atoms: _420  and  _421
REMARK  183  A    between atoms: _427  and  _429
REMARK  184  A    between atoms: _429  and  _430
REMARK  185  A    between atoms: _432  and  _434
REMARK  186  A    between atoms: _434  and  _435
REMARK  187  A    between atoms: _434  and  _437
REMARK  188  A    between atoms: _437  and  _438
REMARK  189  A    between atoms: _441  and  _443
REMARK  190  A    between atoms: _443  and  _444
REMARK  191  A    between atoms: _443  and  _446
REMARK  192  A    between atoms: _446  and  _447
REMARK  193  A    between atoms: _449  and  _451
REMARK  194  A    between atoms: _451  and  _452
REMARK  195  A    between atoms: _451  and  _454
REMARK  196  A    between atoms: _454  and  _455
REMARK  197  A    between atoms: _455  and  _456
REMARK  198  A    between atoms: _456  and  _457
REMARK  199  A    between atoms: _466  and  _468
REMARK  200  A    between atoms: _468  and  _469
REMARK  201  A    between atoms: _468  and  _471
REMARK  202  A    between atoms: _471  and  _472
REMARK  203  A    between atoms: _477  and  _478
REMARK  204  A    between atoms: _480  and  _482
REMARK  205  A    between atoms: _482  and  _483
REMARK  206  A    between atoms: _482  and  _485
REMARK  207  A    between atoms: _485  and  _486
REMARK  208  A    between atoms: _486  and  _487
REMARK                            x       y       z     vdW  Elec       q    Type
REMARK                         _______ _______ _______ _____ _____    ______ ____
ROOT
ATOM      1  CA  ASN A   4      13.799  -8.952 -40.456  0.00  0.00    +0.158 C 
ENDROOT
BRANCH   1   3
ATOM      2  C   ARG A   3      13.898 -10.593 -42.308  0.00  0.00    +0.241 C 
ATOM      3  N   ASN A   4      13.329 -10.118 -41.185  0.00  0.00    -0.297 N 
ATOM      4  H   ASN A   4      12.497 -10.619 -40.814  0.00  0.00    +0.150 HD
ATOM      5  O   ARG A   3      14.889 -10.092 -42.825  0.00  0.00    -0.273 OA
BRANCH   2   6
ATOM      6  CA  ARG A   3      13.220 -11.795 -42.983  0.00  0.00    +0.149 C 
BRANCH   6   9
ATOM      7  C   ALA A   2      12.897 -13.213 -40.961  0.00  0.00    +0.241 C 
ATOM      8  O   ALA A   2      14.068 -13.100 -40.642  0.00  0.00    -0.273 OA
ATOM      9  N   ARG A   3      12.384 -12.586 -42.048  0.00  0.00    -0.297 N 
ATOM     10  H   ARG A   3      11.364 -12.663 -42.233  0.00  0.00    +0.150 HD
BRANCH   7  11
ATOM     11  CA  ALA A   2      11.935 -13.960 -40.024  0.00  0.00    +0.149 C 
ATOM     12  CB  ALA A   2      11.899 -15.447 -40.347  0.00  0.00    +0.031 C 
BRANCH  11  15
ATOM     13  C   ALA A   1      10.339 -12.100 -39.763  0.00  0.00    +0.238 C 
ATOM     14  O   ALA A   1      11.229 -11.301 -39.481  0.00  0.00    -0.274 OA
ATOM     15  N   ALA A   2      10.576 -13.395 -40.049  0.00  0.00    -0.297 N 
ATOM     16  H   ALA A   2       9.776 -14.013 -40.294  0.00  0.00    +0.150 HD
BRANCH  13  17
ATOM     17  CA  ALA A   1       8.904 -11.615 -39.812  0.00  0.00    +0.145 C 
ATOM     18  CB  ALA A   1       8.580 -11.127 -41.231  0.00  0.00    +0.028 C 
BRANCH  17  19
ATOM     19  N   ALA A   1       8.786 -10.493 -38.881  0.00  0.00    -0.238 NA
ATOM     20  H   ALA A   1       9.645  -9.961 -38.633  0.00  0.00    +0.142 HD
ENDBRANCH  17  19
ENDBRANCH  13  17
ENDBRANCH  11  15
ENDBRANCH   7  11
ENDBRANCH   6   9
BRANCH   6  21
ATOM     21  CB  ARG A   3      12.424 -11.304 -44.216  0.00  0.00    +0.033 C 
BRANCH  21  22
ATOM     22  CG  ARG A   3      11.343 -10.314 -43.878  0.00  0.00    +0.045 C 
BRANCH  22  23
ATOM     23  CD  ARG A   3      10.645  -9.719 -45.102  0.00  0.00    +0.174 C 
BRANCH  23  24
ATOM     24  NE  ARG A   3       9.314  -9.335 -44.654  0.00  0.00    -0.265 N 
ATOM     25  HE  ARG A   3       9.178  -8.368 -44.296  0.00  0.00    +0.259 HD
ATOM     26  CZ  ARG A   3       8.271 -10.140 -44.675  0.00  0.00    +0.342 C 
ATOM     27  NH2 ARG A   3       7.139  -9.765 -44.137  0.00  0.00    -0.292 N 
ATOM     28 HH21 ARG A   3       7.060  -8.829 -43.691  0.00  0.00    +0.255 HD
ATOM     29 HH22 ARG A   3       6.318 -10.403 -44.155  0.00  0.00    +0.255 HD
ATOM     30  NH1 ARG A   3       8.386 -11.378 -45.141  0.00  0.00    -0.292 N 
ATOM     31 HH11 ARG A   3       7.558 -12.008 -45.154  0.00  0.00    +0.255 HD
ATOM     32 HH12 ARG A   3       9.304 -11.718 -45.493  0.00  0.00    +0.255 HD
ENDBRANCH  23  24
ENDBRANCH  22  23
ENDBRANCH  21  22
ENDBRANCH   6  21
ENDBRANCH   2   6
ENDBRANCH   1   3
BRANCH   1  33
ATOM     33  C   ASN A   4      14.541  -9.320 -39.187  0.00  0.00    +0.241 C 
ATOM     34  O   ASN A   4      14.755  -8.469 -38.337  0.00  0.00    -0.273 OA
ATOM     35  N   VAL A   5      14.972 -10.578 -39.093  0.00  0.00    -0.297 N 
ATOM     36  H   VAL A   5      14.765 -11.240 -39.868  0.00  0.00    +0.150 HD
BRANCH  35  37
ATOM     37  CA  VAL A   5      15.728 -11.058 -37.933  0.00  0.00    +0.149 C 
BRANCH  37  38
ATOM     38  C   VAL A   5      17.116 -11.457 -38.412  0.00  0.00    +0.241 C 
ATOM     39  N   LEU A   6      18.125 -11.073 -37.638  0.00  0.00    -0.297 N 
ATOM     40  H   LEU A   6      17.907 -10.527 -36.780  0.00  0.00    +0.150 HD
ATOM     41  O   VAL A   5      17.265 -12.115 -39.451  0.00  0.00    -0.273 OA
BRANCH  39  42
ATOM     42  CA  LEU A   6      19.523 -11.376 -37.928  0.00  0.00    +0.149 C 
BRANCH  42  43
ATOM     43  C   LEU A   6      20.116 -12.256 -36.856  0.00  0.00    +0.241 C 
ATOM     44  O   LEU A   6      19.607 -12.293 -35.741  0.00  0.00    -0.273 OA
ATOM     45  N   VAL A   7      21.259 -12.868 -37.162  0.00  0.00    -0.297 N 
ATOM     46  H   VAL A   7      21.683 -12.694 -38.096  0.00  0.00    +0.150 HD
BRANCH  45  47
ATOM     47  CA  VAL A   7      21.938 -13.769 -36.244  0.00  0.00    +0.149 C 
BRANCH  47  48
ATOM     48  C   VAL A   7      23.303 -13.188 -35.837  0.00  0.00    +0.241 C 
ATOM     49  N   SER A   8      23.449 -12.908 -34.542  0.00  0.00    -0.296 N 
ATOM     50  H   SER A   8      22.652 -13.093 -33.900  0.00  0.00    +0.150 HD
ATOM     51  O   VAL A   7      24.194 -13.000 -36.670  0.00  0.00    -0.273 OA
BRANCH  49  52
ATOM     52  CA  SER A   8      24.682 -12.352 -33.986  0.00  0.00    +0.166 C 
BRANCH  52  53
ATOM     53  CB  SER A   8      25.651 -13.462 -33.600  0.00  0.00    +0.229 C 
ATOM     54  OG  SER A   8      26.870 -13.285 -33.709  0.00  0.00    -0.286 OA
ENDBRANCH  52  53
BRANCH  52  55
ATOM     55  C   SER A   8      24.349 -11.476 -32.784  0.00  0.00    +0.165 C 
BRANCH  55  56
ATOM     56  O   SER A   8      25.522 -10.933 -32.213  0.00  0.00    -0.380 OA
ATOM     57  H   SER A   8      25.992 -10.382 -32.888  0.00  0.00    +0.211 HD
ENDBRANCH  55  56
ENDBRANCH  52  55
ENDBRANCH  49  52
ENDBRANCH  47  48
BRANCH  47  58
ATOM     58  CB  VAL A   7      22.057 -15.197 -36.840  0.00  0.00    +0.027 C 
ATOM     59  CG2 VAL A   7      22.583 -16.181 -35.805  0.00  0.00    +0.002 C 
ATOM     60  CG1 VAL A   7      20.719 -15.677 -37.418  0.00  0.00    +0.002 C 
ENDBRANCH  47  58
ENDBRANCH  45  47
ENDBRANCH  42  43
BRANCH  42  61
ATOM     61  CB  LEU A   6      20.323 -10.085 -38.002  0.00  0.00    +0.029 C 
BRANCH  61  62
ATOM     62  CG  LEU A   6      19.822  -9.094 -39.028  0.00  0.00    +0.002 C 
ATOM     63  CD2 LEU A   6      20.359  -7.734 -38.717  0.00  0.00    +0.000 C 
ATOM     64  CD1 LEU A   6      20.165  -9.553 -40.474  0.00  0.00    +0.000 C 
ENDBRANCH  61  62
ENDBRANCH  42  61
ENDBRANCH  39  42
ENDBRANCH  37  38
BRANCH  37  65
ATOM     65  CB  VAL A   5      15.029 -12.226 -37.200  0.00  0.00    +0.027 C 
ATOM     66  CG2 VAL A   5      15.850 -12.659 -35.976  0.00  0.00    +0.002 C 
ATOM     67  CG1 VAL A   5      13.595 -11.832 -36.787  0.00  0.00    +0.002 C 
ENDBRANCH  37  65
ENDBRANCH  35  37
ENDBRANCH   1  33
BRANCH   1  68
ATOM     68  CB  ASN A   4      12.633  -7.991 -40.196  0.00  0.00    +0.114 C 
BRANCH  68  69
ATOM     69  CG  ASN A   4      12.070  -7.463 -41.489  0.00  0.00    +0.222 C 
ATOM     70  ND2 ASN A   4      10.760  -7.296 -41.592  0.00  0.00    -0.329 N 
ATOM     71 HD21 ASN A   4      10.148  -7.463 -40.768  0.00  0.00    +0.145 HD
ATOM     72 HD22 ASN A   4      10.343  -6.998 -42.497  0.00  0.00    +0.145 HD
ATOM     73  OD1 ASN A   4      12.809  -7.276 -42.431  0.00  0.00    -0.275 OA
ENDBRANCH  68  69
ENDBRANCH   1  68
TORSDOF 28
REMARK  Name = ../refined-set-2016/4gu6/4gu6_pocket.pdb
REMARK  208 active torsions:
REMARK  status: ('A' for Active; 'I' for Inactive)
REMARK    1  A    between atoms: _1  and  _3
REMARK    2  A    between atoms: _3  and  _4
REMARK    3  A    between atoms: _3  and  _6
REMARK    4  A    between atoms: _8  and  _10
REMARK    5  A    between atoms: _10  and  _11
REMARK    6  A    between atoms: _10  and  _13
REMARK    7  A    between atoms: _13  and  _14
REMARK    8  A    between atoms: _17  and  _19
REMARK    9  A    between atoms: _19  and  _20
REMARK   10  A    between atoms: _22  and  _24
REMARK   11  A    between atoms: _24  and  _25
REMARK   12  A    between atoms: _24  and  _27
REMARK   13  A    between atoms: _27  and  _28
REMARK   14  A    between atoms: _28  and  _29
REMARK   15  A    between atoms: _32  and  _34
REMARK   16  A    between atoms: _34  and  _35
REMARK   17  A    between atoms: _37  and  _39
REMARK   18  A    between atoms: _39  and  _40
REMARK   19  A    between atoms: _39  and  _42
REMARK   20  A    between atoms: _42  and  _43
REMARK   21  A    between atoms: _43  and  _44
REMARK   22  A    between atoms: _49  and  _51
REMARK   23  A    between atoms: _51  and  _52
REMARK   24  A    between atoms: _54  and  _56
REMARK   25  A    between atoms: _56  and  _57
REMARK   26  A    between atoms: _56  and  _59
REMARK   27  A    between atoms: _59  and  _60
REMARK   28  A    between atoms: _63  and  _65
REMARK   29  A    between atoms: _65  and  _66
REMARK   30  A    between atoms: _65  and  _68
REMARK   31  A    between atoms: _71  and  _73
REMARK   32  A    between atoms: _73  and  _74
REMARK   33  A    between atoms: _73  and  _76
REMARK   34  A    between atoms: _76  and  _77
REMARK   35  A    between atoms: _82  and  _84
REMARK   36  A    between atoms: _84  and  _85
REMARK   37  A    between atoms: _84  and  _87
REMARK   38  A    between atoms: _87  and  _88
REMARK   39  A    between atoms: _88  and  _89
REMARK   40  A    between atoms: _94  and  _96
REMARK   41  A    between atoms: _96  and  _97
REMARK   42  A    between atoms: _100  and  _102
REMARK   43  A    between atoms: _102  and  _103
REMARK   44  A    between atoms: _102  and  _105
REMARK   45  A    between atoms: _108  and  _110
REMARK   46  A    between atoms: _110  and  _111
REMARK   47  A    between atoms: _114  and  _116
REMARK   48  A    between atoms: _116  and  _117
REMARK   49  A    between atoms: _116  and  _119
REMARK   50  A    between atoms: _119  and  _120
REMARK   51  A    between atoms: _123  and  _125
REMARK   52  A    between atoms: _125  and  _126
REMARK   53  A    between atoms: _125  and  _128
REMARK   54  A    between atoms: _128  and  _129
REMARK   55  A    between atoms: _129  and  _130
REMARK   56  A    between atoms: _130  and  _131
REMARK   57  A    between atoms: _131  and  _132
REMARK   58  A    between atoms: _136  and  _138
REMARK   59  A    between atoms: _138  and  _139
REMARK   60  A    between atoms: _138  and  _141
REMARK   61  A    between atoms: _141  and  _142
REMARK   62  A    between atoms: _142  and  _143
REMARK   63  A    between atoms: _145  and  _147
REMARK   64  A    between atoms: _147  and  _148
REMARK   65  A    between atoms: _147  and  _150
REMARK   66  A    between atoms: _153  and  _155
REMARK   67  A    between atoms: _155  and  _156
REMARK   68  A    between atoms: _155  and  _158
REMARK   69  A    between atoms: _158  and  _159
REMARK   70  A    between atoms: _159  and  _160
REMARK   71  A    between atoms: _160  and  _161
REMARK   72  A    between atoms: _161  and  _162
REMARK   73  A    between atoms: _166  and  _168
REMARK   74  A    between atoms: _168  and  _169
REMARK   75  A    between atoms: _168  and  _171
REMARK   76  A    between atoms: _171  and  _172
REMARK   77  A    between atoms: _175  and  _177
REMARK   78  A    between atoms: _177  and  _178
REMARK   79  A    between atoms: _177  and  _180
REMARK   80  A    between atoms: _180  and  _181
REMARK   81  A    between atoms: _184  and  _186
REMARK   82  A    between atoms: _186  and  _187
REMARK   83  A    between atoms: _186  and  _189
REMARK   84  A    between atoms: _189  and  _190
REMARK   85  A    between atoms: _190  and  _191
REMARK   86  A    between atoms: _193  and  _195
REMARK   87  A    between atoms: _195  and  _196
REMARK   88  A    between atoms: _195  and  _198
REMARK   89  A    between atoms: _199  and  _200
REMARK   90  A    between atoms: _203  and  _205
REMARK   91  A    between atoms: _205  and  _206
REMARK   92  A    between atoms: _205  and  _208
REMARK   93  A    between atoms: _208  and  _209
REMARK   94  A    between atoms: _212  and  _214
REMARK   95  A    between atoms: _214  and  _215
REMARK   96  A    between atoms: _214  and  _217
REMARK   97  A    between atoms: _219  and  _221
REMARK   98  A    between atoms: _221  and  _222
REMARK   99  A    between atoms: _221  and  _224
REMARK  100  A    between atoms: _224  and  _225
REMARK  101  A    between atoms: _228  and  _230
REMARK  102  A    between atoms: _230  and  _231
REMARK  103  A    between atoms: _230  and  _233
REMARK  104  A    between atoms: _233  and  _234
REMARK  105  A    between atoms: _237  and  _239
REMARK  106  A    between atoms: _239  and  _240
REMARK  107  A    between atoms: _242  and  _244
REMARK  108  A    between atoms: _244  and  _245
REMARK  109  A    between atoms: _244  and  _247
REMARK  110  A    between atoms: _247  and  _248
REMARK  111  A    between atoms: _248  and  _249
REMARK  112  A    between atoms: _252  and  _254
REMARK  113  A    between atoms: _254  and  _255
REMARK  114  A    between atoms: _254  and  _257
REMARK  115  A    between atoms: _257  and  _258
REMARK  116  A    between atoms: _261  and  _263
REMARK  117  A    between atoms: _263  and  _264
REMARK  118  A    between atoms: _263  and  _266
REMARK  119  A    between atoms: _266  and  _267
REMARK  120  A    between atoms: _267  and  _268
REMARK  121  A    between atoms: _268  and  _269
REMARK  122  A    between atoms: _278  and  _280
REMARK  123  A    between atoms: _280  and  _281
REMARK  124  A    between atoms: _280  and  _283
REMARK  125  A    between atoms: _283  and  _284
REMARK  126  A    between atoms: _286  and  _288
REMARK  127  A    between atoms: _288  and  _289
REMARK  128  A    between atoms: _288  and  _291
REMARK  129  A    between atoms: _291  and  _292
REMARK  130  A    between atoms: _297  and  _299
REMARK  131  A    between atoms: _299  and  _300
REMARK  132  A    between atoms: _299  and  _302
REMARK  133  A    between atoms: _302  and  _303
REMARK  134  A    between atoms: _306  and  _308
REMARK  135  A    between atoms: _308  and  _309
REMARK  136  A    between atoms: _312  and  _314
REMARK  137  A    between atoms: _314  and  _315
REMARK  138  A    between atoms: _318  and  _320
REMARK  139  A    between atoms: _320  and  _321
REMARK  140  A    between atoms: _320  and  _323
REMARK  141  A    between atoms: _323  and  _324
REMARK  142  A    between atoms: _324  and  _325
REMARK  143  A    between atoms: _325  and  _326
REMARK  144  A    between atoms: _335  and  _337
REMARK  145  A    between atoms: _337  and  _338
REMARK  146  A    between atoms: _337  and  _340
REMARK  147  A    between atoms: _340  and  _341
REMARK  148  A    between atoms: _346  and  _348
REMARK  149  A    between atoms: _348  and  _349
REMARK  150  A    between atoms: _348  and  _351
REMARK  151  A    between atoms: _354  and  _356
REMARK  152  A    between atoms: _356  and  _357
REMARK  153  A    between atoms: _356  and  _359
REMARK  154  A    between atoms: _359  and  _360
REMARK  155  A    between atoms: _363  and  _365
REMARK  156  A    between atoms: _365  and  _366
REMARK  157  A    between atoms: _365  and  _368
REMARK  158  A    between atoms: _371  and  _373
REMARK  159  A    between atoms: _373  and  _374
REMARK  160  A    between atoms: _373  and  _376
REMARK  161  A    between atoms: _376  and  _377
REMARK  162  A    between atoms: _379  and  _381
REMARK  163  A    between atoms: _381  and  _382
REMARK  164  A    between atoms: _381  and  _384
REMARK  165  A    between atoms: _384  and  _385
REMARK  166  A    between atoms: _385  and  _386
REMARK  167  A    between atoms: _386  and  _387
REMARK  168  A    between atoms: _387  and  _388
REMARK  169  A    between atoms: _392  and  _394
REMARK  170  A    between atoms: _394  and  _395
REMARK  171  A    between atoms: _394  and  _397
REMARK  172  A    between atoms: _397  and  _398
REMARK  173  A    between atoms: _401  and  _403
REMARK  174  A    between atoms: _403  and  _404
REMARK  175  A    between atoms: _406  and  _408
REMARK  176  A    between atoms: _408  and  _409
REMARK  177  A    between atoms: _408  and  _411
REMARK  178  A    between atoms: _411  and  _412
REMARK  179  A    between atoms: _415  and  _417
REMARK  180  A    between atoms: _417  and  _418
REMARK  181  A    between atoms: _417  and  _420
REMARK  182  A    between atoms: _420  and  _421
REMARK  183  A    between atoms: _427  and  _429
REMARK  184  A    between atoms: _429  and  _430
REMARK  185  A    between atoms: _432  and  _434
REMARK  186  A    between atoms: _434  and  _435
REMARK  187  A    between atoms: _434  and  _437
REMARK  188  A    between atoms: _437  and  _438
REMARK  189  A    between atoms: _441  and  _443
REMARK  190  A    between atoms: _443  and  _444
REMARK  191  A    between atoms: _443  and  _446
REMARK  192  A    between atoms: _446  and  _447
REMARK  193  A    between atoms: _449  and  _451
REMARK  194  A    between atoms: _451  and  _452
REMARK  195  A    between atoms: _451  and  _454
REMARK  196  A    between atoms: _454  and  _455
REMARK  197  A    between atoms: _455  and  _456
REMARK  198  A    between atoms: _456  and  _457
REMARK  199  A    between atoms: _466  and  _468
REMARK  200  A    between atoms: _468  and  _469
REMARK  201  A    between atoms: _468  and  _471
REMARK  202  A    between atoms: _471  and  _472
REMARK  203  A    between atoms: _477  and  _478
REMARK  204  A    between atoms: _480  and  _482
REMARK  205  A    between atoms: _482  and  _483
REMARK  206  A    between atoms: _482  and  _485
REMARK  207  A    between atoms: _485  and  _486
REMARK  208  A    between atoms: _486  and  _487
REMARK                            x       y       z     vdW  Elec       q    Type
REMARK                         _______ _______ _______ _____ _____    ______ ____
ROOT
ATOM      1  C   GLY A   6      13.835   0.386 -42.595  0.00  0.00    +0.243 C 
ATOM      2  N   LEU A   7      14.918  -0.396 -42.559  0.00  0.00    -0.297 N 
ATOM      3  H   LEU A   7      15.626  -0.234 -41.815  0.00  0.00    +0.150 HD
ATOM      4  O   GLY A   6      12.950   0.240 -43.434  0.00  0.00    -0.273 OA
ENDROOT
BRANCH   2   5
ATOM      5  CA  LEU A   7      15.149  -1.477 -43.529  0.00  0.00    +0.149 C 
BRANCH   5   6
ATOM      6  C   LEU A   7      14.076  -2.577 -43.464  0.00  0.00    +0.241 C 
ATOM      7  N   SER A   8      13.437  -2.781 -42.264  0.00  0.00    -0.295 N 
ATOM      8  H   SER A   8      13.681  -2.174 -41.456  0.00  0.00    +0.150 HD
ATOM      9  O   LEU A   7      13.856  -3.254 -44.473  0.00  0.00    -0.273 OA
BRANCH   7  10
ATOM     10  CA  SER A   8      12.418  -3.831 -42.083  0.00  0.00    +0.178 C 
BRANCH  10  11
ATOM     11  C   SER A   8      11.099  -3.458 -42.790  0.00  0.00    +0.243 C 
ATOM     12  O   SER A   8      10.274  -4.340 -43.032  0.00  0.00    -0.273 OA
ATOM     13  N   ARG A   9      10.903  -2.153 -43.095  0.00  0.00    -0.297 N 
ATOM     14  H   ARG A   9      11.641  -1.469 -42.833  0.00  0.00    +0.150 HD
BRANCH  13  15
ATOM     15  CA  ARG A   9       9.688  -1.649 -43.784  0.00  0.00    +0.149 C 
BRANCH  15  16
ATOM     16  C   ARG A   9       9.817  -1.737 -45.293  0.00  0.00    +0.241 C 
ATOM     17  N   TYR A  10      10.817  -2.476 -45.765  0.00  0.00    -0.297 N 
ATOM     18  H   TYR A  10      11.439  -2.969 -45.093  0.00  0.00    +0.150 HD
ATOM     19  O   ARG A   9       8.979  -1.184 -46.026  0.00  0.00    -0.273 OA
BRANCH  17  20
ATOM     20  CA  TYR A  10      11.071  -2.618 -47.193  0.00  0.00    +0.153 C 
BRANCH  20  21
ATOM     21  C   TYR A  10       9.888  -3.244 -47.931  0.00  0.00    +0.241 C 
ATOM     22  N   MET A  11       9.328  -4.330 -47.382  0.00  0.00    -0.298 N 
ATOM     23  H   MET A  11       9.684  -4.690 -46.474  0.00  0.00    +0.150 HD
ATOM     24  O   TYR A  10       9.507  -2.750 -48.986  0.00  0.00    -0.273 OA
BRANCH  22  25
ATOM     25  CA  MET A  11       8.214  -5.017 -48.053  0.00  0.00    +0.138 C 
BRANCH  25  26
ATOM     26  C   MET A  11       6.978  -4.142 -48.087  0.00  0.00    +0.227 C 
ATOM     27  O   MET A  11       6.314  -4.092 -49.119  0.00  0.00    -0.286 OA
ENDBRANCH  25  26
BRANCH  25  28
ATOM     28  CB  MET A  11       7.902  -6.373 -47.393  0.00  0.00    +0.039 C 
BRANCH  28  29
ATOM     29  CG  MET A  11       9.021  -7.389 -47.521  0.00  0.00    +0.060 C 
BRANCH  29  30
ATOM     30  SD  MET A  11       9.586  -7.613 -49.228  0.00  0.00    -0.139 S 
ATOM     31  CE  MET A  11      11.241  -8.498 -48.936  0.00  0.00    +0.069 C 
ENDBRANCH  29  30
ENDBRANCH  28  29
ENDBRANCH  25  28
ENDBRANCH  22  25
ENDBRANCH  20  21
BRANCH  20  32
ATOM     32  CB  TYR A  10      12.355  -3.412 -47.458  0.00  0.00    +0.055 C 
BRANCH  32  33
ATOM     33  CG  TYR A  10      12.792  -3.379 -48.913  0.00  0.00    -0.020 A 
ATOM     34  CD2 TYR A  10      13.570  -2.329 -49.409  0.00  0.00    -0.001 A 
ATOM     35  CE2 TYR A  10      13.989  -2.301 -50.740  0.00  0.00    +0.036 A 
ATOM     36  CZ  TYR A  10      13.621  -3.328 -51.596  0.00  0.00    +0.134 A 
ATOM     37  CE1 TYR A  10      12.843  -4.378 -51.129  0.00  0.00    +0.036 A 
ATOM     38  CD1 TYR A  10      12.419  -4.389 -49.797  0.00  0.00    -0.001 A 
BRANCH  36  39
ATOM     39  OH  TYR A  10      14.031  -3.324 -52.903  0.00  0.00    -0.506 OA
ATOM     40  HH  TYR A  10      13.238  -3.325 -53.496  0.00  0.00    +0.292 HD
ENDBRANCH  36  39
ENDBRANCH  32  33
ENDBRANCH  20  32
ENDBRANCH  17  20
ENDBRANCH  15  16
BRANCH  15  41
ATOM     41  CB  ARG A   9       9.349  -0.199 -43.351  0.00  0.00    +0.033 C 
BRANCH  41  42
ATOM     42  CG  ARG A   9       8.843  -0.085 -41.897  0.00  0.00    +0.045 C 
BRANCH  42  43
ATOM     43  CD  ARG A   9       8.167   1.253 -41.551  0.00  0.00    +0.174 C 
BRANCH  43  44
ATOM     44  NE  ARG A   9       9.023   2.405 -41.851  0.00  0.00    -0.265 N 
ATOM     45  CZ  ARG A   9       9.924   2.920 -41.020  0.00  0.00    +0.342 C 
ATOM     46  NH2 ARG A   9      10.076   2.417 -39.799  0.00  0.00    -0.292 N 
ATOM     47 HH21 ARG A   9      10.782   2.824 -39.153  0.00  0.00    +0.255 HD
ATOM     48 HH22 ARG A   9       9.489   1.617 -39.489  0.00  0.00    +0.255 HD
ATOM     49  NH1 ARG A   9      10.659   3.958 -41.390  0.00  0.00    -0.292 N 
ATOM     50 HH11 ARG A   9      11.362   4.357 -40.736  0.00  0.00    +0.255 HD
ATOM     51 HH12 ARG A   9      10.533   4.374 -42.335  0.00  0.00    +0.255 HD
ATOM     52  HE  ARG A   9       8.917   2.853 -42.784  0.00  0.00    +0.259 HD
ENDBRANCH  43  44
ENDBRANCH  42  43
ENDBRANCH  41  42
ENDBRANCH  15  41
ENDBRANCH  13  15
ENDBRANCH  10  11
BRANCH  10  53
ATOM     53  CB  SER A   8      12.158  -4.077 -40.599  0.00  0.00    +0.166 C 
BRANCH  53  54
ATOM     54  OG  SER A   8      13.297  -4.634 -39.963  0.00  0.00    -0.380 OA
ATOM     55  H   SER A   8      13.099  -4.782 -39.004  0.00  0.00    +0.211 HD
ENDBRANCH  53  54
ENDBRANCH  10  53
ENDBRANCH   7  10
ENDBRANCH   5   6
BRANCH   5  56
ATOM     56  CB  LEU A   7      16.538  -2.104 -43.295  0.00  0.00    +0.029 C 
BRANCH  56  57
ATOM     57  CG  LEU A   7      17.760  -1.192 -43.552  0.00  0.00    +0.002 C 
ATOM     58  CD2 LEU A   7      19.057  -1.941 -43.205  0.00  0.00    +0.000 C 
ATOM     59  CD1 LEU A   7      17.786  -0.711 -44.999  0.00  0.00    +0.000 C 
ENDBRANCH  56  57
ENDBRANCH   5  56
ENDBRANCH   2   5
BRANCH   1  60
ATOM     60  CA  GLY A   6      13.695   1.430 -41.501  0.00  0.00    +0.176 C 
BRANCH  60  62
ATOM     61  C   PHE A   5      13.094  -0.107 -39.715  0.00  0.00    +0.241 C 
ATOM     62  N   GLY A   6      13.914   0.808 -40.195  0.00  0.00    -0.295 N 
ATOM     63  H   GLY A   6      14.738   1.095 -39.630  0.00  0.00    +0.150 HD
ATOM     64  O   PHE A   5      12.074  -0.458 -40.282  0.00  0.00    -0.273 OA
BRANCH  61  65
ATOM     65  CA  PHE A   5      13.474  -0.764 -38.400  0.00  0.00    +0.153 C 
BRANCH  65  67
ATOM     66  C   ASP A   4      15.616  -1.874 -38.884  0.00  0.00    +0.241 C 
ATOM     67  N   PHE A   5      14.924  -0.955 -38.194  0.00  0.00    -0.297 N 
ATOM     68  H   PHE A   5      15.420  -0.363 -37.498  0.00  0.00    +0.150 HD
ATOM     69  O   ASP A   4      15.119  -2.579 -39.780  0.00  0.00    -0.273 OA
BRANCH  66  70
ATOM     70  CA  ASP A   4      17.089  -2.038 -38.524  0.00  0.00    +0.160 C 
BRANCH  70  73
ATOM     71  C   GLY A   3      16.795  -4.346 -37.717  0.00  0.00    +0.243 C 
ATOM     72  O   GLY A   3      15.805  -4.037 -37.057  0.00  0.00    -0.273 OA
ATOM     73  N   ASP A   4      17.449  -3.460 -38.462  0.00  0.00    -0.296 N 
ATOM     74  H   ASP A   4      18.256  -3.791 -39.029  0.00  0.00    +0.150 HD
BRANCH  71  75
ATOM     75  CA  GLY A   3      17.311  -5.770 -37.719  0.00  0.00    +0.176 C 
BRANCH  75  78
ATOM     76  C   LEU A   2      16.617  -6.690 -35.570  0.00  0.00    +0.241 C 
ATOM     77  O   LEU A   2      17.444  -6.038 -34.950  0.00  0.00    -0.273 OA
ATOM     78  N   GLY A   3      16.498  -6.660 -36.897  0.00  0.00    -0.295 N 
ATOM     79  H   GLY A   3      15.808  -7.287 -37.358  0.00  0.00    +0.150 HD
BRANCH  76  80
ATOM     80  CA  LEU A   2      15.700  -7.638 -34.809  0.00  0.00    +0.149 C 
BRANCH  80  82
ATOM     81  C   LYS A   1      17.473  -9.209 -34.195  0.00  0.00    +0.238 C 
ATOM     82  N   LEU A   2      16.535  -8.324 -33.834  0.00  0.00    -0.297 N 
ATOM     83  H   LEU A   2      16.399  -8.120 -32.823  0.00  0.00    +0.150 HD
ATOM     84  O   LYS A   1      17.638  -9.594 -35.350  0.00  0.00    -0.274 OA
BRANCH  81  85
ATOM     85  CA  LYS A   1      18.400  -9.675 -33.106  0.00  0.00    +0.145 C 
BRANCH  85  86
ATOM     86  N   LYS A   1      18.776 -11.059 -33.304  0.00  0.00    -0.238 NA
ATOM     87  H   LYS A   1      18.952 -11.399 -34.271  0.00  0.00    +0.142 HD
ENDBRANCH  85  86
BRANCH  85  88
ATOM     88  CB  LYS A   1      19.631  -8.734 -33.083  0.00  0.00    +0.026 C 
BRANCH  88  89
ATOM     89  CG  LYS A   1      20.690  -9.148 -32.060  0.00  0.00    -0.000 C 
BRANCH  89  90
ATOM     90  CD  LYS A   1      21.701  -8.058 -31.760  0.00  0.00    -0.024 C 
BRANCH  90  91
ATOM     91  CE  LYS A   1      22.750  -8.619 -30.807  0.00  0.00    -0.086 C 
BRANCH  91  92
ATOM     92  NZ  LYS A   1      23.471  -7.507 -30.157  0.00  0.00    +0.380 N 
ATOM     93  HZ1 LYS A   1      24.186  -7.892 -29.507  0.00  0.00    -0.089 HD
ATOM     94  HZ2 LYS A   1      22.796  -6.922 -29.624  0.00  0.00    -0.089 HD
ATOM     95  HZ3 LYS A   1      23.937  -6.926 -30.883  0.00  0.00    -0.089 HD
ENDBRANCH  91  92
ENDBRANCH  90  91
ENDBRANCH  89  90
ENDBRANCH  88  89
ENDBRANCH  85  88
ENDBRANCH  81  85
ENDBRANCH  80  82
BRANCH  80  96
ATOM     96  CB  LEU A   2      14.645  -6.803 -34.094  0.00  0.00    +0.029 C 
BRANCH  96  97
ATOM     97  CG  LEU A   2      13.453  -7.571 -33.511  0.00  0.00    +0.002 C 
ATOM     98  CD2 LEU A   2      12.508  -6.592 -32.803  0.00  0.00    +0.000 C 
ATOM     99  CD1 LEU A   2      12.654  -8.275 -34.626  0.00  0.00    +0.000 C 
ENDBRANCH  96  97
ENDBRANCH  80  96
ENDBRANCH  76  80
ENDBRANCH  75  78
ENDBRANCH  71  75
ENDBRANCH  70  73
BRANCH  70 100
ATOM    100  CB  ASP A   4      17.950  -1.325 -39.581  0.00  0.00    +0.143 C 
BRANCH 100 101
ATOM    101  CG  ASP A   4      17.589   0.123 -39.687  0.00  0.00    +0.367 C 
ATOM    102  OD2 ASP A   4      17.819   0.856 -38.714  0.00  0.00    -0.246 OA
ATOM    103  OD1 ASP A   4      16.996   0.509 -40.698  0.00  0.00    -0.246 OA
ENDBRANCH 100 101
ENDBRANCH  70 100
ENDBRANCH  66  70
ENDBRANCH  65  67
BRANCH  65 104
ATOM    104  CB  PHE A   5      12.793  -0.071 -37.203  0.00  0.00    +0.055 C 
BRANCH 104 105
ATOM    105  CG  PHE A   5      12.878  -0.833 -35.893  0.00  0.00    -0.020 A 
ATOM    106  CD2 PHE A   5      12.578  -0.210 -34.699  0.00  0.00    -0.004 A 
ATOM    107  CE2 PHE A   5      12.677  -0.898 -33.485  0.00  0.00    -0.000 A 
ATOM    108  CZ  PHE A   5      13.116  -2.197 -33.461  0.00  0.00    -0.000 A 
ATOM    109  CE1 PHE A   5      13.434  -2.842 -34.637  0.00  0.00    -0.000 A 
ATOM    110  CD1 PHE A   5      13.313  -2.160 -35.858  0.00  0.00    -0.004 A 
ENDBRANCH 104 105
ENDBRANCH  65 104
ENDBRANCH  61  65
ENDBRANCH  60  62
ENDBRANCH   1  60
TORSDOF 47
REMARK  Name = ../refined-set-2016/4gu6/4gu6_pocket.pdb
REMARK  208 active torsions:
REMARK  status: ('A' for Active; 'I' for Inactive)
REMARK    1  A    between atoms: _1  and  _3
REMARK    2  A    between atoms: _3  and  _4
REMARK    3  A    between atoms: _3  and  _6
REMARK    4  A    between atoms: _8  and  _10
REMARK    5  A    between atoms: _10  and  _11
REMARK    6  A    between atoms: _10  and  _13
REMARK    7  A    between atoms: _13  and  _14
REMARK    8  A    between atoms: _17  and  _19
REMARK    9  A    between atoms: _19  and  _20
REMARK   10  A    between atoms: _22  and  _24
REMARK   11  A    between atoms: _24  and  _25
REMARK   12  A    between atoms: _24  and  _27
REMARK   13  A    between atoms: _27  and  _28
REMARK   14  A    between atoms: _28  and  _29
REMARK   15  A    between atoms: _32  and  _34
REMARK   16  A    between atoms: _34  and  _35
REMARK   17  A    between atoms: _37  and  _39
REMARK   18  A    between atoms: _39  and  _40
REMARK   19  A    between atoms: _39  and  _42
REMARK   20  A    between atoms: _42  and  _43
REMARK   21  A    between atoms: _43  and  _44
REMARK   22  A    between atoms: _49  and  _51
REMARK   23  A    between atoms: _51  and  _52
REMARK   24  A    between atoms: _54  and  _56
REMARK   25  A    between atoms: _56  and  _57
REMARK   26  A    between atoms: _56  and  _59
REMARK   27  A    between atoms: _59  and  _60
REMARK   28  A    between atoms: _63  and  _65
REMARK   29  A    between atoms: _65  and  _66
REMARK   30  A    between atoms: _65  and  _68
REMARK   31  A    between atoms: _71  and  _73
REMARK   32  A    between atoms: _73  and  _74
REMARK   33  A    between atoms: _73  and  _76
REMARK   34  A    between atoms: _76  and  _77
REMARK   35  A    between atoms: _82  and  _84
REMARK   36  A    between atoms: _84  and  _85
REMARK   37  A    between atoms: _84  and  _87
REMARK   38  A    between atoms: _87  and  _88
REMARK   39  A    between atoms: _88  and  _89
REMARK   40  A    between atoms: _94  and  _96
REMARK   41  A    between atoms: _96  and  _97
REMARK   42  A    between atoms: _100  and  _102
REMARK   43  A    between atoms: _102  and  _103
REMARK   44  A    between atoms: _102  and  _105
REMARK   45  A    between atoms: _108  and  _110
REMARK   46  A    between atoms: _110  and  _111
REMARK   47  A    between atoms: _114  and  _116
REMARK   48  A    between atoms: _116  and  _117
REMARK   49  A    between atoms: _116  and  _119
REMARK   50  A    between atoms: _119  and  _120
REMARK   51  A    between atoms: _123  and  _125
REMARK   52  A    between atoms: _125  and  _126
REMARK   53  A    between atoms: _125  and  _128
REMARK   54  A    between atoms: _128  and  _129
REMARK   55  A    between atoms: _129  and  _130
REMARK   56  A    between atoms: _130  and  _131
REMARK   57  A    between atoms: _131  and  _132
REMARK   58  A    between atoms: _136  and  _138
REMARK   59  A    between atoms: _138  and  _139
REMARK   60  A    between atoms: _138  and  _141
REMARK   61  A    between atoms: _141  and  _142
REMARK   62  A    between atoms: _142  and  _143
REMARK   63  A    between atoms: _145  and  _147
REMARK   64  A    between atoms: _147  and  _148
REMARK   65  A    between atoms: _147  and  _150
REMARK   66  A    between atoms: _153  and  _155
REMARK   67  A    between atoms: _155  and  _156
REMARK   68  A    between atoms: _155  and  _158
REMARK   69  A    between atoms: _158  and  _159
REMARK   70  A    between atoms: _159  and  _160
REMARK   71  A    between atoms: _160  and  _161
REMARK   72  A    between atoms: _161  and  _162
REMARK   73  A    between atoms: _166  and  _168
REMARK   74  A    between atoms: _168  and  _169
REMARK   75  A    between atoms: _168  and  _171
REMARK   76  A    between atoms: _171  and  _172
REMARK   77  A    between atoms: _175  and  _177
REMARK   78  A    between atoms: _177  and  _178
REMARK   79  A    between atoms: _177  and  _180
REMARK   80  A    between atoms: _180  and  _181
REMARK   81  A    between atoms: _184  and  _186
REMARK   82  A    between atoms: _186  and  _187
REMARK   83  A    between atoms: _186  and  _189
REMARK   84  A    between atoms: _189  and  _190
REMARK   85  A    between atoms: _190  and  _191
REMARK   86  A    between atoms: _193  and  _195
REMARK   87  A    between atoms: _195  and  _196
REMARK   88  A    between atoms: _195  and  _198
REMARK   89  A    between atoms: _199  and  _200
REMARK   90  A    between atoms: _203  and  _205
REMARK   91  A    between atoms: _205  and  _206
REMARK   92  A    between atoms: _205  and  _208
REMARK   93  A    between atoms: _208  and  _209
REMARK   94  A    between atoms: _212  and  _214
REMARK   95  A    between atoms: _214  and  _215
REMARK   96  A    between atoms: _214  and  _217
REMARK   97  A    between atoms: _219  and  _221
REMARK   98  A    between atoms: _221  and  _222
REMARK   99  A    between atoms: _221  and  _224
REMARK  100  A    between atoms: _224  and  _225
REMARK  101  A    between atoms: _228  and  _230
REMARK  102  A    between atoms: _230  and  _231
REMARK  103  A    between atoms: _230  and  _233
REMARK  104  A    between atoms: _233  and  _234
REMARK  105  A    between atoms: _237  and  _239
REMARK  106  A    between atoms: _239  and  _240
REMARK  107  A    between atoms: _242  and  _244
REMARK  108  A    between atoms: _244  and  _245
REMARK  109  A    between atoms: _244  and  _247
REMARK  110  A    between atoms: _247  and  _248
REMARK  111  A    between atoms: _248  and  _249
REMARK  112  A    between atoms: _252  and  _254
REMARK  113  A    between atoms: _254  and  _255
REMARK  114  A    between atoms: _254  and  _257
REMARK  115  A    between atoms: _257  and  _258
REMARK  116  A    between atoms: _261  and  _263
REMARK  117  A    between atoms: _263  and  _264
REMARK  118  A    between atoms: _263  and  _266
REMARK  119  A    between atoms: _266  and  _267
REMARK  120  A    between atoms: _267  and  _268
REMARK  121  A    between atoms: _268  and  _269
REMARK  122  A    between atoms: _278  and  _280
REMARK  123  A    between atoms: _280  and  _281
REMARK  124  A    between atoms: _280  and  _283
REMARK  125  A    between atoms: _283  and  _284
REMARK  126  A    between atoms: _286  and  _288
REMARK  127  A    between atoms: _288  and  _289
REMARK  128  A    between atoms: _288  and  _291
REMARK  129  A    between atoms: _291  and  _292
REMARK  130  A    between atoms: _297  and  _299
REMARK  131  A    between atoms: _299  and  _300
REMARK  132  A    between atoms: _299  and  _302
REMARK  133  A    between atoms: _302  and  _303
REMARK  134  A    between atoms: _306  and  _308
REMARK  135  A    between atoms: _308  and  _309
REMARK  136  A    between atoms: _312  and  _314
REMARK  137  A    between atoms: _314  and  _315
REMARK  138  A    between atoms: _318  and  _320
REMARK  139  A    between atoms: _320  and  _321
REMARK  140  A    between atoms: _320  and  _323
REMARK  141  A    between atoms: _323  and  _324
REMARK  142  A    between atoms: _324  and  _325
REMARK  143  A    between atoms: _325  and  _326
REMARK  144  A    between atoms: _335  and  _337
REMARK  145  A    between atoms: _337  and  _338
REMARK  146  A    between atoms: _337  and  _340
REMARK  147  A    between atoms: _340  and  _341
REMARK  148  A    between atoms: _346  and  _348
REMARK  149  A    between atoms: _348  and  _349
REMARK  150  A    between atoms: _348  and  _351
REMARK  151  A    between atoms: _354  and  _356
REMARK  152  A    between atoms: _356  and  _357
REMARK  153  A    between atoms: _356  and  _359
REMARK  154  A    between atoms: _359  and  _360
REMARK  155  A    between atoms: _363  and  _365
REMARK  156  A    between atoms: _365  and  _366
REMARK  157  A    between atoms: _365  and  _368
REMARK  158  A    between atoms: _371  and  _373
REMARK  159  A    between atoms: _373  and  _374
REMARK  160  A    between atoms: _373  and  _376
REMARK  161  A    between atoms: _376  and  _377
REMARK  162  A    between atoms: _379  and  _381
REMARK  163  A    between atoms: _381  and  _382
REMARK  164  A    between atoms: _381  and  _384
REMARK  165  A    between atoms: _384  and  _385
REMARK  166  A    between atoms: _385  and  _386
REMARK  167  A    between atoms: _386  and  _387
REMARK  168  A    between atoms: _387  and  _388
REMARK  169  A    between atoms: _392  and  _394
REMARK  170  A    between atoms: _394  and  _395
REMARK  171  A    between atoms: _394  and  _397
REMARK  172  A    between atoms: _397  and  _398
REMARK  173  A    between atoms: _401  and  _403
REMARK  174  A    between atoms: _403  and  _404
REMARK  175  A    between atoms: _406  and  _408
REMARK  176  A    between atoms: _408  and  _409
REMARK  177  A    between atoms: _408  and  _411
REMARK  178  A    between atoms: _411  and  _412
REMARK  179  A    between atoms: _415  and  _417
REMARK  180  A    between atoms: _417  and  _418
REMARK  181  A    between atoms: _417  and  _420
REMARK  182  A    between atoms: _420  and  _421
REMARK  183  A    between atoms: _427  and  _429
REMARK  184  A    between atoms: _429  and  _430
REMARK  185  A    between atoms: _432  and  _434
REMARK  186  A    between atoms: _434  and  _435
REMARK  187  A    between atoms: _434  and  _437
REMARK  188  A    between atoms: _437  and  _438
REMARK  189  A    between atoms: _441  and  _443
REMARK  190  A    between atoms: _443  and  _444
REMARK  191  A    between atoms: _443  and  _446
REMARK  192  A    between atoms: _446  and  _447
REMARK  193  A    between atoms: _449  and  _451
REMARK  194  A    between atoms: _451  and  _452
REMARK  195  A    between atoms: _451  and  _454
REMARK  196  A    between atoms: _454  and  _455
REMARK  197  A    between atoms: _455  and  _456
REMARK  198  A    between atoms: _456  and  _457
REMARK  199  A    between atoms: _466  and  _468
REMARK  200  A    between atoms: _468  and  _469
REMARK  201  A    between atoms: _468  and  _471
REMARK  202  A    between atoms: _471  and  _472
REMARK  203  A    between atoms: _477  and  _478
REMARK  204  A    between atoms: _480  and  _482
REMARK  205  A    between atoms: _482  and  _483
REMARK  206  A    between atoms: _482  and  _485
REMARK  207  A    between atoms: _485  and  _486
REMARK  208  A    between atoms: _486  and  _487
REMARK                            x       y       z     vdW  Elec       q    Type
REMARK                         _______ _______ _______ _____ _____    ______ ____
ROOT
ATOM      1  O   HOH     1      17.578   2.391 -47.052  0.00  0.00    +0.000 OA
ENDROOT
TORSDOF 0
REMARK  Name = ../refined-set-2016/4gu6/4gu6_pocket.pdb
REMARK  208 active torsions:
REMARK  status: ('A' for Active; 'I' for Inactive)
REMARK    1  A    between atoms: _1  and  _3
REMARK    2  A    between atoms: _3  and  _4
REMARK    3  A    between atoms: _3  and  _6
REMARK    4  A    between atoms: _8  and  _10
REMARK    5  A    between atoms: _10  and  _11
REMARK    6  A    between atoms: _10  and  _13
REMARK    7  A    between atoms: _13  and  _14
REMARK    8  A    between atoms: _17  and  _19
REMARK    9  A    between atoms: _19  and  _20
REMARK   10  A    between atoms: _22  and  _24
REMARK   11  A    between atoms: _24  and  _25
REMARK   12  A    between atoms: _24  and  _27
REMARK   13  A    between atoms: _27  and  _28
REMARK   14  A    between atoms: _28  and  _29
REMARK   15  A    between atoms: _32  and  _34
REMARK   16  A    between atoms: _34  and  _35
REMARK   17  A    between atoms: _37  and  _39
REMARK   18  A    between atoms: _39  and  _40
REMARK   19  A    between atoms: _39  and  _42
REMARK   20  A    between atoms: _42  and  _43
REMARK   21  A    between atoms: _43  and  _44
REMARK   22  A    between atoms: _49  and  _51
REMARK   23  A    between atoms: _51  and  _52
REMARK   24  A    between atoms: _54  and  _56
REMARK   25  A    between atoms: _56  and  _57
REMARK   26  A    between atoms: _56  and  _59
REMARK   27  A    between atoms: _59  and  _60
REMARK   28  A    between atoms: _63  and  _65
REMARK   29  A    between atoms: _65  and  _66
REMARK   30  A    between atoms: _65  and  _68
REMARK   31  A    between atoms: _71  and  _73
REMARK   32  A    between atoms: _73  and  _74
REMARK   33  A    between atoms: _73  and  _76
REMARK   34  A    between atoms: _76  and  _77
REMARK   35  A    between atoms: _82  and  _84
REMARK   36  A    between atoms: _84  and  _85
REMARK   37  A    between atoms: _84  and  _87
REMARK   38  A    between atoms: _87  and  _88
REMARK   39  A    between atoms: _88  and  _89
REMARK   40  A    between atoms: _94  and  _96
REMARK   41  A    between atoms: _96  and  _97
REMARK   42  A    between atoms: _100  and  _102
REMARK   43  A    between atoms: _102  and  _103
REMARK   44  A    between atoms: _102  and  _105
REMARK   45  A    between atoms: _108  and  _110
REMARK   46  A    between atoms: _110  and  _111
REMARK   47  A    between atoms: _114  and  _116
REMARK   48  A    between atoms: _116  and  _117
REMARK   49  A    between atoms: _116  and  _119
REMARK   50  A    between atoms: _119  and  _120
REMARK   51  A    between atoms: _123  and  _125
REMARK   52  A    between atoms: _125  and  _126
REMARK   53  A    between atoms: _125  and  _128
REMARK   54  A    between atoms: _128  and  _129
REMARK   55  A    between atoms: _129  and  _130
REMARK   56  A    between atoms: _130  and  _131
REMARK   57  A    between atoms: _131  and  _132
REMARK   58  A    between atoms: _136  and  _138
REMARK   59  A    between atoms: _138  and  _139
REMARK   60  A    between atoms: _138  and  _141
REMARK   61  A    between atoms: _141  and  _142
REMARK   62  A    between atoms: _142  and  _143
REMARK   63  A    between atoms: _145  and  _147
REMARK   64  A    between atoms: _147  and  _148
REMARK   65  A    between atoms: _147  and  _150
REMARK   66  A    between atoms: _153  and  _155
REMARK   67  A    between atoms: _155  and  _156
REMARK   68  A    between atoms: _155  and  _158
REMARK   69  A    between atoms: _158  and  _159
REMARK   70  A    between atoms: _159  and  _160
REMARK   71  A    between atoms: _160  and  _161
REMARK   72  A    between atoms: _161  and  _162
REMARK   73  A    between atoms: _166  and  _168
REMARK   74  A    between atoms: _168  and  _169
REMARK   75  A    between atoms: _168  and  _171
REMARK   76  A    between atoms: _171  and  _172
REMARK   77  A    between atoms: _175  and  _177
REMARK   78  A    between atoms: _177  and  _178
REMARK   79  A    between atoms: _177  and  _180
REMARK   80  A    between atoms: _180  and  _181
REMARK   81  A    between atoms: _184  and  _186
REMARK   82  A    between atoms: _186  and  _187
REMARK   83  A    between atoms: _186  and  _189
REMARK   84  A    between atoms: _189  and  _190
REMARK   85  A    between atoms: _190  and  _191
REMARK   86  A    between atoms: _193  and  _195
REMARK   87  A    between atoms: _195  and  _196
REMARK   88  A    between atoms: _195  and  _198
REMARK   89  A    between atoms: _199  and  _200
REMARK   90  A    between atoms: _203  and  _205
REMARK   91  A    between atoms: _205  and  _206
REMARK   92  A    between atoms: _205  and  _208
REMARK   93  A    between atoms: _208  and  _209
REMARK   94  A    between atoms: _212  and  _214
REMARK   95  A    between atoms: _214  and  _215
REMARK   96  A    between atoms: _214  and  _217
REMARK   97  A    between atoms: _219  and  _221
REMARK   98  A    between atoms: _221  and  _222
REMARK   99  A    between atoms: _221  and  _224
REMARK  100  A    between atoms: _224  and  _225
REMARK  101  A    between atoms: _228  and  _230
REMARK  102  A    between atoms: _230  and  _231
REMARK  103  A    between atoms: _230  and  _233
REMARK  104  A    between atoms: _233  and  _234
REMARK  105  A    between atoms: _237  and  _239
REMARK  106  A    between atoms: _239  and  _240
REMARK  107  A    between atoms: _242  and  _244
REMARK  108  A    between atoms: _244  and  _245
REMARK  109  A    between atoms: _244  and  _247
REMARK  110  A    between atoms: _247  and  _248
REMARK  111  A    between atoms: _248  and  _249
REMARK  112  A    between atoms: _252  and  _254
REMARK  113  A    between atoms: _254  and  _255
REMARK  114  A    between atoms: _254  and  _257
REMARK  115  A    between atoms: _257  and  _258
REMARK  116  A    between atoms: _261  and  _263
REMARK  117  A    between atoms: _263  and  _264
REMARK  118  A    between atoms: _263  and  _266
REMARK  119  A    between atoms: _266  and  _267
REMARK  120  A    between atoms: _267  and  _268
REMARK  121  A    between atoms: _268  and  _269
REMARK  122  A    between atoms: _278  and  _280
REMARK  123  A    between atoms: _280  and  _281
REMARK  124  A    between atoms: _280  and  _283
REMARK  125  A    between atoms: _283  and  _284
REMARK  126  A    between atoms: _286  and  _288
REMARK  127  A    between atoms: _288  and  _289
REMARK  128  A    between atoms: _288  and  _291
REMARK  129  A    between atoms: _291  and  _292
REMARK  130  A    between atoms: _297  and  _299
REMARK  131  A    between atoms: _299  and  _300
REMARK  132  A    between atoms: _299  and  _302
REMARK  133  A    between atoms: _302  and  _303
REMARK  134  A    between atoms: _306  and  _308
REMARK  135  A    between atoms: _308  and  _309
REMARK  136  A    between atoms: _312  and  _314
REMARK  137  A    between atoms: _314  and  _315
REMARK  138  A    between atoms: _318  and  _320
REMARK  139  A    between atoms: _320  and  _321
REMARK  140  A    between atoms: _320  and  _323
REMARK  141  A    between atoms: _323  and  _324
REMARK  142  A    between atoms: _324  and  _325
REMARK  143  A    between atoms: _325  and  _326
REMARK  144  A    between atoms: _335  and  _337
REMARK  145  A    between atoms: _337  and  _338
REMARK  146  A    between atoms: _337  and  _340
REMARK  147  A    between atoms: _340  and  _341
REMARK  148  A    between atoms: _346  and  _348
REMARK  149  A    between atoms: _348  and  _349
REMARK  150  A    between atoms: _348  and  _351
REMARK  151  A    between atoms: _354  and  _356
REMARK  152  A    between atoms: _356  and  _357
REMARK  153  A    between atoms: _356  and  _359
REMARK  154  A    between atoms: _359  and  _360
REMARK  155  A    between atoms: _363  and  _365
REMARK  156  A    between atoms: _365  and  _366
REMARK  157  A    between atoms: _365  and  _368
REMARK  158  A    between atoms: _371  and  _373
REMARK  159  A    between atoms: _373  and  _374
REMARK  160  A    between atoms: _373  and  _376
REMARK  161  A    between atoms: _376  and  _377
REMARK  162  A    between atoms: _379  and  _381
REMARK  163  A    between atoms: _381  and  _382
REMARK  164  A    between atoms: _381  and  _384
REMARK  165  A    between atoms: _384  and  _385
REMARK  166  A    between atoms: _385  and  _386
REMARK  167  A    between atoms: _386  and  _387
REMARK  168  A    between atoms: _387  and  _388
REMARK  169  A    between atoms: _392  and  _394
REMARK  170  A    between atoms: _394  and  _395
REMARK  171  A    between atoms: _394  and  _397
REMARK  172  A    between atoms: _397  and  _398
REMARK  173  A    between atoms: _401  and  _403
REMARK  174  A    between atoms: _403  and  _404
REMARK  175  A    between atoms: _406  and  _408
REMARK  176  A    between atoms: _408  and  _409
REMARK  177  A    between atoms: _408  and  _411
REMARK  178  A    between atoms: _411  and  _412
REMARK  179  A    between atoms: _415  and  _417
REMARK  180  A    between atoms: _417  and  _418
REMARK  181  A    between atoms: _417  and  _420
REMARK  182  A    between atoms: _420  and  _421
REMARK  183  A    between atoms: _427  and  _429
REMARK  184  A    between atoms: _429  and  _430
REMARK  185  A    between atoms: _432  and  _434
REMARK  186  A    between atoms: _434  and  _435
REMARK  187  A    between atoms: _434  and  _437
REMARK  188  A    between atoms: _437  and  _438
REMARK  189  A    between atoms: _441  and  _443
REMARK  190  A    between atoms: _443  and  _444
REMARK  191  A    between atoms: _443  and  _446
REMARK  192  A    between atoms: _446  and  _447
REMARK  193  A    between atoms: _449  and  _451
REMARK  194  A    between atoms: _451  and  _452
REMARK  195  A    between atoms: _451  and  _454
REMARK  196  A    between atoms: _454  and  _455
REMARK  197  A    between atoms: _455  and  _456
REMARK  198  A    between atoms: _456  and  _457
REMARK  199  A    between atoms: _466  and  _468
REMARK  200  A    between atoms: _468  and  _469
REMARK  201  A    between atoms: _468  and  _471
REMARK  202  A    between atoms: _471  and  _472
REMARK  203  A    between atoms: _477  and  _478
REMARK  204  A    between atoms: _480  and  _482
REMARK  205  A    between atoms: _482  and  _483
REMARK  206  A    between atoms: _482  and  _485
REMARK  207  A    between atoms: _485  and  _486
REMARK  208  A    between atoms: _486  and  _487
REMARK                            x       y       z     vdW  Elec       q    Type
REMARK                         _______ _______ _______ _____ _____    ______ ____
ROOT
ATOM      1  O   HOH     1      20.346   2.375 -47.229  0.00  0.00    +0.000 OA
ENDROOT
TORSDOF 0
REMARK  Name = ../refined-set-2016/4gu6/4gu6_pocket.pdb
REMARK  208 active torsions:
REMARK  status: ('A' for Active; 'I' for Inactive)
REMARK    1  A    between atoms: _1  and  _3
REMARK    2  A    between atoms: _3  and  _4
REMARK    3  A    between atoms: _3  and  _6
REMARK    4  A    between atoms: _8  and  _10
REMARK    5  A    between atoms: _10  and  _11
REMARK    6  A    between atoms: _10  and  _13
REMARK    7  A    between atoms: _13  and  _14
REMARK    8  A    between atoms: _17  and  _19
REMARK    9  A    between atoms: _19  and  _20
REMARK   10  A    between atoms: _22  and  _24
REMARK   11  A    between atoms: _24  and  _25
REMARK   12  A    between atoms: _24  and  _27
REMARK   13  A    between atoms: _27  and  _28
REMARK   14  A    between atoms: _28  and  _29
REMARK   15  A    between atoms: _32  and  _34
REMARK   16  A    between atoms: _34  and  _35
REMARK   17  A    between atoms: _37  and  _39
REMARK   18  A    between atoms: _39  and  _40
REMARK   19  A    between atoms: _39  and  _42
REMARK   20  A    between atoms: _42  and  _43
REMARK   21  A    between atoms: _43  and  _44
REMARK   22  A    between atoms: _49  and  _51
REMARK   23  A    between atoms: _51  and  _52
REMARK   24  A    between atoms: _54  and  _56
REMARK   25  A    between atoms: _56  and  _57
REMARK   26  A    between atoms: _56  and  _59
REMARK   27  A    between atoms: _59  and  _60
REMARK   28  A    between atoms: _63  and  _65
REMARK   29  A    between atoms: _65  and  _66
REMARK   30  A    between atoms: _65  and  _68
REMARK   31  A    between atoms: _71  and  _73
REMARK   32  A    between atoms: _73  and  _74
REMARK   33  A    between atoms: _73  and  _76
REMARK   34  A    between atoms: _76  and  _77
REMARK   35  A    between atoms: _82  and  _84
REMARK   36  A    between atoms: _84  and  _85
REMARK   37  A    between atoms: _84  and  _87
REMARK   38  A    between atoms: _87  and  _88
REMARK   39  A    between atoms: _88  and  _89
REMARK   40  A    between atoms: _94  and  _96
REMARK   41  A    between atoms: _96  and  _97
REMARK   42  A    between atoms: _100  and  _102
REMARK   43  A    between atoms: _102  and  _103
REMARK   44  A    between atoms: _102  and  _105
REMARK   45  A    between atoms: _108  and  _110
REMARK   46  A    between atoms: _110  and  _111
REMARK   47  A    between atoms: _114  and  _116
REMARK   48  A    between atoms: _116  and  _117
REMARK   49  A    between atoms: _116  and  _119
REMARK   50  A    between atoms: _119  and  _120
REMARK   51  A    between atoms: _123  and  _125
REMARK   52  A    between atoms: _125  and  _126
REMARK   53  A    between atoms: _125  and  _128
REMARK   54  A    between atoms: _128  and  _129
REMARK   55  A    between atoms: _129  and  _130
REMARK   56  A    between atoms: _130  and  _131
REMARK   57  A    between atoms: _131  and  _132
REMARK   58  A    between atoms: _136  and  _138
REMARK   59  A    between atoms: _138  and  _139
REMARK   60  A    between atoms: _138  and  _141
REMARK   61  A    between atoms: _141  and  _142
REMARK   62  A    between atoms: _142  and  _143
REMARK   63  A    between atoms: _145  and  _147
REMARK   64  A    between atoms: _147  and  _148
REMARK   65  A    between atoms: _147  and  _150
REMARK   66  A    between atoms: _153  and  _155
REMARK   67  A    between atoms: _155  and  _156
REMARK   68  A    between atoms: _155  and  _158
REMARK   69  A    between atoms: _158  and  _159
REMARK   70  A    between atoms: _159  and  _160
REMARK   71  A    between atoms: _160  and  _161
REMARK   72  A    between atoms: _161  and  _162
REMARK   73  A    between atoms: _166  and  _168
REMARK   74  A    between atoms: _168  and  _169
REMARK   75  A    between atoms: _168  and  _171
REMARK   76  A    between atoms: _171  and  _172
REMARK   77  A    between atoms: _175  and  _177
REMARK   78  A    between atoms: _177  and  _178
REMARK   79  A    between atoms: _177  and  _180
REMARK   80  A    between atoms: _180  and  _181
REMARK   81  A    between atoms: _184  and  _186
REMARK   82  A    between atoms: _186  and  _187
REMARK   83  A    between atoms: _186  and  _189
REMARK   84  A    between atoms: _189  and  _190
REMARK   85  A    between atoms: _190  and  _191
REMARK   86  A    between atoms: _193  and  _195
REMARK   87  A    between atoms: _195  and  _196
REMARK   88  A    between atoms: _195  and  _198
REMARK   89  A    between atoms: _199  and  _200
REMARK   90  A    between atoms: _203  and  _205
REMARK   91  A    between atoms: _205  and  _206
REMARK   92  A    between atoms: _205  and  _208
REMARK   93  A    between atoms: _208  and  _209
REMARK   94  A    between atoms: _212  and  _214
REMARK   95  A    between atoms: _214  and  _215
REMARK   96  A    between atoms: _214  and  _217
REMARK   97  A    between atoms: _219  and  _221
REMARK   98  A    between atoms: _221  and  _222
REMARK   99  A    between atoms: _221  and  _224
REMARK  100  A    between atoms: _224  and  _225
REMARK  101  A    between atoms: _228  and  _230
REMARK  102  A    between atoms: _230  and  _231
REMARK  103  A    between atoms: _230  and  _233
REMARK  104  A    between atoms: _233  and  _234
REMARK  105  A    between atoms: _237  and  _239
REMARK  106  A    between atoms: _239  and  _240
REMARK  107  A    between atoms: _242  and  _244
REMARK  108  A    between atoms: _244  and  _245
REMARK  109  A    between atoms: _244  and  _247
REMARK  110  A    between atoms: _247  and  _248
REMARK  111  A    between atoms: _248  and  _249
REMARK  112  A    between atoms: _252  and  _254
REMARK  113  A    between atoms: _254  and  _255
REMARK  114  A    between atoms: _254  and  _257
REMARK  115  A    between atoms: _257  and  _258
REMARK  116  A    between atoms: _261  and  _263
REMARK  117  A    between atoms: _263  and  _264
REMARK  118  A    between atoms: _263  and  _266
REMARK  119  A    between atoms: _266  and  _267
REMARK  120  A    between atoms: _267  and  _268
REMARK  121  A    between atoms: _268  and  _269
REMARK  122  A    between atoms: _278  and  _280
REMARK  123  A    between atoms: _280  and  _281
REMARK  124  A    between atoms: _280  and  _283
REMARK  125  A    between atoms: _283  and  _284
REMARK  126  A    between atoms: _286  and  _288
REMARK  127  A    between atoms: _288  and  _289
REMARK  128  A    between atoms: _288  and  _291
REMARK  129  A    between atoms: _291  and  _292
REMARK  130  A    between atoms: _297  and  _299
REMARK  131  A    between atoms: _299  and  _300
REMARK  132  A    between atoms: _299  and  _302
REMARK  133  A    between atoms: _302  and  _303
REMARK  134  A    between atoms: _306  and  _308
REMARK  135  A    between atoms: _308  and  _309
REMARK  136  A    between atoms: _312  and  _314
REMARK  137  A    between atoms: _314  and  _315
REMARK  138  A    between atoms: _318  and  _320
REMARK  139  A    between atoms: _320  and  _321
REMARK  140  A    between atoms: _320  and  _323
REMARK  141  A    between atoms: _323  and  _324
REMARK  142  A    between atoms: _324  and  _325
REMARK  143  A    between atoms: _325  and  _326
REMARK  144  A    between atoms: _335  and  _337
REMARK  145  A    between atoms: _337  and  _338
REMARK  146  A    between atoms: _337  and  _340
REMARK  147  A    between atoms: _340  and  _341
REMARK  148  A    between atoms: _346  and  _348
REMARK  149  A    between atoms: _348  and  _349
REMARK  150  A    between atoms: _348  and  _351
REMARK  151  A    between atoms: _354  and  _356
REMARK  152  A    between atoms: _356  and  _357
REMARK  153  A    between atoms: _356  and  _359
REMARK  154  A    between atoms: _359  and  _360
REMARK  155  A    between atoms: _363  and  _365
REMARK  156  A    between atoms: _365  and  _366
REMARK  157  A    between atoms: _365  and  _368
REMARK  158  A    between atoms: _371  and  _373
REMARK  159  A    between atoms: _373  and  _374
REMARK  160  A    between atoms: _373  and  _376
REMARK  161  A    between atoms: _376  and  _377
REMARK  162  A    between atoms: _379  and  _381
REMARK  163  A    between atoms: _381  and  _382
REMARK  164  A    between atoms: _381  and  _384
REMARK  165  A    between atoms: _384  and  _385
REMARK  166  A    between atoms: _385  and  _386
REMARK  167  A    between atoms: _386  and  _387
REMARK  168  A    between atoms: _387  and  _388
REMARK  169  A    between atoms: _392  and  _394
REMARK  170  A    between atoms: _394  and  _395
REMARK  171  A    between atoms: _394  and  _397
REMARK  172  A    between atoms: _397  and  _398
REMARK  173  A    between atoms: _401  and  _403
REMARK  174  A    between atoms: _403  and  _404
REMARK  175  A    between atoms: _406  and  _408
REMARK  176  A    between atoms: _408  and  _409
REMARK  177  A    between atoms: _408  and  _411
REMARK  178  A    between atoms: _411  and  _412
REMARK  179  A    between atoms: _415  and  _417
REMARK  180  A    between atoms: _417  and  _418
REMARK  181  A    between atoms: _417  and  _420
REMARK  182  A    between atoms: _420  and  _421
REMARK  183  A    between atoms: _427  and  _429
REMARK  184  A    between atoms: _429  and  _430
REMARK  185  A    between atoms: _432  and  _434
REMARK  186  A    between atoms: _434  and  _435
REMARK  187  A    between atoms: _434  and  _437
REMARK  188  A    between atoms: _437  and  _438
REMARK  189  A    between atoms: _441  and  _443
REMARK  190  A    between atoms: _443  and  _444
REMARK  191  A    between atoms: _443  and  _446
REMARK  192  A    between atoms: _446  and  _447
REMARK  193  A    between atoms: _449  and  _451
REMARK  194  A    between atoms: _451  and  _452
REMARK  195  A    between atoms: _451  and  _454
REMARK  196  A    between atoms: _454  and  _455
REMARK  197  A    between atoms: _455  and  _456
REMARK  198  A    between atoms: _456  and  _457
REMARK  199  A    between atoms: _466  and  _468
REMARK  200  A    between atoms: _468  and  _469
REMARK  201  A    between atoms: _468  and  _471
REMARK  202  A    between atoms: _471  and  _472
REMARK  203  A    between atoms: _477  and  _478
REMARK  204  A    between atoms: _480  and  _482
REMARK  205  A    between atoms: _482  and  _483
REMARK  206  A    between atoms: _482  and  _485
REMARK  207  A    between atoms: _485  and  _486
REMARK  208  A    between atoms: _486  and  _487
REMARK                            x       y       z     vdW  Elec       q    Type
REMARK                         _______ _______ _______ _____ _____    ______ ____
ROOT
ATOM      1  O   HOH     1      15.892   2.320 -44.789  0.00  0.00    +0.000 OA
ENDROOT
TORSDOF 0
REMARK  Name = ../refined-set-2016/4gu6/4gu6_pocket.pdb
REMARK  208 active torsions:
REMARK  status: ('A' for Active; 'I' for Inactive)
REMARK    1  A    between atoms: _1  and  _3
REMARK    2  A    between atoms: _3  and  _4
REMARK    3  A    between atoms: _3  and  _6
REMARK    4  A    between atoms: _8  and  _10
REMARK    5  A    between atoms: _10  and  _11
REMARK    6  A    between atoms: _10  and  _13
REMARK    7  A    between atoms: _13  and  _14
REMARK    8  A    between atoms: _17  and  _19
REMARK    9  A    between atoms: _19  and  _20
REMARK   10  A    between atoms: _22  and  _24
REMARK   11  A    between atoms: _24  and  _25
REMARK   12  A    between atoms: _24  and  _27
REMARK   13  A    between atoms: _27  and  _28
REMARK   14  A    between atoms: _28  and  _29
REMARK   15  A    between atoms: _32  and  _34
REMARK   16  A    between atoms: _34  and  _35
REMARK   17  A    between atoms: _37  and  _39
REMARK   18  A    between atoms: _39  and  _40
REMARK   19  A    between atoms: _39  and  _42
REMARK   20  A    between atoms: _42  and  _43
REMARK   21  A    between atoms: _43  and  _44
REMARK   22  A    between atoms: _49  and  _51
REMARK   23  A    between atoms: _51  and  _52
REMARK   24  A    between atoms: _54  and  _56
REMARK   25  A    between atoms: _56  and  _57
REMARK   26  A    between atoms: _56  and  _59
REMARK   27  A    between atoms: _59  and  _60
REMARK   28  A    between atoms: _63  and  _65
REMARK   29  A    between atoms: _65  and  _66
REMARK   30  A    between atoms: _65  and  _68
REMARK   31  A    between atoms: _71  and  _73
REMARK   32  A    between atoms: _73  and  _74
REMARK   33  A    between atoms: _73  and  _76
REMARK   34  A    between atoms: _76  and  _77
REMARK   35  A    between atoms: _82  and  _84
REMARK   36  A    between atoms: _84  and  _85
REMARK   37  A    between atoms: _84  and  _87
REMARK   38  A    between atoms: _87  and  _88
REMARK   39  A    between atoms: _88  and  _89
REMARK   40  A    between atoms: _94  and  _96
REMARK   41  A    between atoms: _96  and  _97
REMARK   42  A    between atoms: _100  and  _102
REMARK   43  A    between atoms: _102  and  _103
REMARK   44  A    between atoms: _102  and  _105
REMARK   45  A    between atoms: _108  and  _110
REMARK   46  A    between atoms: _110  and  _111
REMARK   47  A    between atoms: _114  and  _116
REMARK   48  A    between atoms: _116  and  _117
REMARK   49  A    between atoms: _116  and  _119
REMARK   50  A    between atoms: _119  and  _120
REMARK   51  A    between atoms: _123  and  _125
REMARK   52  A    between atoms: _125  and  _126
REMARK   53  A    between atoms: _125  and  _128
REMARK   54  A    between atoms: _128  and  _129
REMARK   55  A    between atoms: _129  and  _130
REMARK   56  A    between atoms: _130  and  _131
REMARK   57  A    between atoms: _131  and  _132
REMARK   58  A    between atoms: _136  and  _138
REMARK   59  A    between atoms: _138  and  _139
REMARK   60  A    between atoms: _138  and  _141
REMARK   61  A    between atoms: _141  and  _142
REMARK   62  A    between atoms: _142  and  _143
REMARK   63  A    between atoms: _145  and  _147
REMARK   64  A    between atoms: _147  and  _148
REMARK   65  A    between atoms: _147  and  _150
REMARK   66  A    between atoms: _153  and  _155
REMARK   67  A    between atoms: _155  and  _156
REMARK   68  A    between atoms: _155  and  _158
REMARK   69  A    between atoms: _158  and  _159
REMARK   70  A    between atoms: _159  and  _160
REMARK   71  A    between atoms: _160  and  _161
REMARK   72  A    between atoms: _161  and  _162
REMARK   73  A    between atoms: _166  and  _168
REMARK   74  A    between atoms: _168  and  _169
REMARK   75  A    between atoms: _168  and  _171
REMARK   76  A    between atoms: _171  and  _172
REMARK   77  A    between atoms: _175  and  _177
REMARK   78  A    between atoms: _177  and  _178
REMARK   79  A    between atoms: _177  and  _180
REMARK   80  A    between atoms: _180  and  _181
REMARK   81  A    between atoms: _184  and  _186
REMARK   82  A    between atoms: _186  and  _187
REMARK   83  A    between atoms: _186  and  _189
REMARK   84  A    between atoms: _189  and  _190
REMARK   85  A    between atoms: _190  and  _191
REMARK   86  A    between atoms: _193  and  _195
REMARK   87  A    between atoms: _195  and  _196
REMARK   88  A    between atoms: _195  and  _198
REMARK   89  A    between atoms: _199  and  _200
REMARK   90  A    between atoms: _203  and  _205
REMARK   91  A    between atoms: _205  and  _206
REMARK   92  A    between atoms: _205  and  _208
REMARK   93  A    between atoms: _208  and  _209
REMARK   94  A    between atoms: _212  and  _214
REMARK   95  A    between atoms: _214  and  _215
REMARK   96  A    between atoms: _214  and  _217
REMARK   97  A    between atoms: _219  and  _221
REMARK   98  A    between atoms: _221  and  _222
REMARK   99  A    between atoms: _221  and  _224
REMARK  100  A    between atoms: _224  and  _225
REMARK  101  A    between atoms: _228  and  _230
REMARK  102  A    between atoms: _230  and  _231
REMARK  103  A    between atoms: _230  and  _233
REMARK  104  A    between atoms: _233  and  _234
REMARK  105  A    between atoms: _237  and  _239
REMARK  106  A    between atoms: _239  and  _240
REMARK  107  A    between atoms: _242  and  _244
REMARK  108  A    between atoms: _244  and  _245
REMARK  109  A    between atoms: _244  and  _247
REMARK  110  A    between atoms: _247  and  _248
REMARK  111  A    between atoms: _248  and  _249
REMARK  112  A    between atoms: _252  and  _254
REMARK  113  A    between atoms: _254  and  _255
REMARK  114  A    between atoms: _254  and  _257
REMARK  115  A    between atoms: _257  and  _258
REMARK  116  A    between atoms: _261  and  _263
REMARK  117  A    between atoms: _263  and  _264
REMARK  118  A    between atoms: _263  and  _266
REMARK  119  A    between atoms: _266  and  _267
REMARK  120  A    between atoms: _267  and  _268
REMARK  121  A    between atoms: _268  and  _269
REMARK  122  A    between atoms: _278  and  _280
REMARK  123  A    between atoms: _280  and  _281
REMARK  124  A    between atoms: _280  and  _283
REMARK  125  A    between atoms: _283  and  _284
REMARK  126  A    between atoms: _286  and  _288
REMARK  127  A    between atoms: _288  and  _289
REMARK  128  A    between atoms: _288  and  _291
REMARK  129  A    between atoms: _291  and  _292
REMARK  130  A    between atoms: _297  and  _299
REMARK  131  A    between atoms: _299  and  _300
REMARK  132  A    between atoms: _299  and  _302
REMARK  133  A    between atoms: _302  and  _303
REMARK  134  A    between atoms: _306  and  _308
REMARK  135  A    between atoms: _308  and  _309
REMARK  136  A    between atoms: _312  and  _314
REMARK  137  A    between atoms: _314  and  _315
REMARK  138  A    between atoms: _318  and  _320
REMARK  139  A    between atoms: _320  and  _321
REMARK  140  A    between atoms: _320  and  _323
REMARK  141  A    between atoms: _323  and  _324
REMARK  142  A    between atoms: _324  and  _325
REMARK  143  A    between atoms: _325  and  _326
REMARK  144  A    between atoms: _335  and  _337
REMARK  145  A    between atoms: _337  and  _338
REMARK  146  A    between atoms: _337  and  _340
REMARK  147  A    between atoms: _340  and  _341
REMARK  148  A    between atoms: _346  and  _348
REMARK  149  A    between atoms: _348  and  _349
REMARK  150  A    between atoms: _348  and  _351
REMARK  151  A    between atoms: _354  and  _356
REMARK  152  A    between atoms: _356  and  _357
REMARK  153  A    between atoms: _356  and  _359
REMARK  154  A    between atoms: _359  and  _360
REMARK  155  A    between atoms: _363  and  _365
REMARK  156  A    between atoms: _365  and  _366
REMARK  157  A    between atoms: _365  and  _368
REMARK  158  A    between atoms: _371  and  _373
REMARK  159  A    between atoms: _373  and  _374
REMARK  160  A    between atoms: _373  and  _376
REMARK  161  A    between atoms: _376  and  _377
REMARK  162  A    between atoms: _379  and  _381
REMARK  163  A    between atoms: _381  and  _382
REMARK  164  A    between atoms: _381  and  _384
REMARK  165  A    between atoms: _384  and  _385
REMARK  166  A    between atoms: _385  and  _386
REMARK  167  A    between atoms: _386  and  _387
REMARK  168  A    between atoms: _387  and  _388
REMARK  169  A    between atoms: _392  and  _394
REMARK  170  A    between atoms: _394  and  _395
REMARK  171  A    between atoms: _394  and  _397
REMARK  172  A    between atoms: _397  and  _398
REMARK  173  A    between atoms: _401  and  _403
REMARK  174  A    between atoms: _403  and  _404
REMARK  175  A    between atoms: _406  and  _408
REMARK  176  A    between atoms: _408  and  _409
REMARK  177  A    between atoms: _408  and  _411
REMARK  178  A    between atoms: _411  and  _412
REMARK  179  A    between atoms: _415  and  _417
REMARK  180  A    between atoms: _417  and  _418
REMARK  181  A    between atoms: _417  and  _420
REMARK  182  A    between atoms: _420  and  _421
REMARK  183  A    between atoms: _427  and  _429
REMARK  184  A    between atoms: _429  and  _430
REMARK  185  A    between atoms: _432  and  _434
REMARK  186  A    between atoms: _434  and  _435
REMARK  187  A    between atoms: _434  and  _437
REMARK  188  A    between atoms: _437  and  _438
REMARK  189  A    between atoms: _441  and  _443
REMARK  190  A    between atoms: _443  and  _444
REMARK  191  A    between atoms: _443  and  _446
REMARK  192  A    between atoms: _446  and  _447
REMARK  193  A    between atoms: _449  and  _451
REMARK  194  A    between atoms: _451  and  _452
REMARK  195  A    between atoms: _451  and  _454
REMARK  196  A    between atoms: _454  and  _455
REMARK  197  A    between atoms: _455  and  _456
REMARK  198  A    between atoms: _456  and  _457
REMARK  199  A    between atoms: _466  and  _468
REMARK  200  A    between atoms: _468  and  _469
REMARK  201  A    between atoms: _468  and  _471
REMARK  202  A    between atoms: _471  and  _472
REMARK  203  A    between atoms: _477  and  _478
REMARK  204  A    between atoms: _480  and  _482
REMARK  205  A    between atoms: _482  and  _483
REMARK  206  A    between atoms: _482  and  _485
REMARK  207  A    between atoms: _485  and  _486
REMARK  208  A    between atoms: _486  and  _487
REMARK                            x       y       z     vdW  Elec       q    Type
REMARK                         _______ _______ _______ _____ _____    ______ ____
ROOT
ATOM      1  O   HOH     1      13.436  -5.534 -37.519  0.00  0.00    +0.000 OA
ENDROOT
TORSDOF 0
REMARK  Name = ../refined-set-2016/4gu6/4gu6_pocket.pdb
REMARK  208 active torsions:
REMARK  status: ('A' for Active; 'I' for Inactive)
REMARK    1  A    between atoms: _1  and  _3
REMARK    2  A    between atoms: _3  and  _4
REMARK    3  A    between atoms: _3  and  _6
REMARK    4  A    between atoms: _8  and  _10
REMARK    5  A    between atoms: _10  and  _11
REMARK    6  A    between atoms: _10  and  _13
REMARK    7  A    between atoms: _13  and  _14
REMARK    8  A    between atoms: _17  and  _19
REMARK    9  A    between atoms: _19  and  _20
REMARK   10  A    between atoms: _22  and  _24
REMARK   11  A    between atoms: _24  and  _25
REMARK   12  A    between atoms: _24  and  _27
REMARK   13  A    between atoms: _27  and  _28
REMARK   14  A    between atoms: _28  and  _29
REMARK   15  A    between atoms: _32  and  _34
REMARK   16  A    between atoms: _34  and  _35
REMARK   17  A    between atoms: _37  and  _39
REMARK   18  A    between atoms: _39  and  _40
REMARK   19  A    between atoms: _39  and  _42
REMARK   20  A    between atoms: _42  and  _43
REMARK   21  A    between atoms: _43  and  _44
REMARK   22  A    between atoms: _49  and  _51
REMARK   23  A    between atoms: _51  and  _52
REMARK   24  A    between atoms: _54  and  _56
REMARK   25  A    between atoms: _56  and  _57
REMARK   26  A    between atoms: _56  and  _59
REMARK   27  A    between atoms: _59  and  _60
REMARK   28  A    between atoms: _63  and  _65
REMARK   29  A    between atoms: _65  and  _66
REMARK   30  A    between atoms: _65  and  _68
REMARK   31  A    between atoms: _71  and  _73
REMARK   32  A    between atoms: _73  and  _74
REMARK   33  A    between atoms: _73  and  _76
REMARK   34  A    between atoms: _76  and  _77
REMARK   35  A    between atoms: _82  and  _84
REMARK   36  A    between atoms: _84  and  _85
REMARK   37  A    between atoms: _84  and  _87
REMARK   38  A    between atoms: _87  and  _88
REMARK   39  A    between atoms: _88  and  _89
REMARK   40  A    between atoms: _94  and  _96
REMARK   41  A    between atoms: _96  and  _97
REMARK   42  A    between atoms: _100  and  _102
REMARK   43  A    between atoms: _102  and  _103
REMARK   44  A    between atoms: _102  and  _105
REMARK   45  A    between atoms: _108  and  _110
REMARK   46  A    between atoms: _110  and  _111
REMARK   47  A    between atoms: _114  and  _116
REMARK   48  A    between atoms: _116  and  _117
REMARK   49  A    between atoms: _116  and  _119
REMARK   50  A    between atoms: _119  and  _120
REMARK   51  A    between atoms: _123  and  _125
REMARK   52  A    between atoms: _125  and  _126
REMARK   53  A    between atoms: _125  and  _128
REMARK   54  A    between atoms: _128  and  _129
REMARK   55  A    between atoms: _129  and  _130
REMARK   56  A    between atoms: _130  and  _131
REMARK   57  A    between atoms: _131  and  _132
REMARK   58  A    between atoms: _136  and  _138
REMARK   59  A    between atoms: _138  and  _139
REMARK   60  A    between atoms: _138  and  _141
REMARK   61  A    between atoms: _141  and  _142
REMARK   62  A    between atoms: _142  and  _143
REMARK   63  A    between atoms: _145  and  _147
REMARK   64  A    between atoms: _147  and  _148
REMARK   65  A    between atoms: _147  and  _150
REMARK   66  A    between atoms: _153  and  _155
REMARK   67  A    between atoms: _155  and  _156
REMARK   68  A    between atoms: _155  and  _158
REMARK   69  A    between atoms: _158  and  _159
REMARK   70  A    between atoms: _159  and  _160
REMARK   71  A    between atoms: _160  and  _161
REMARK   72  A    between atoms: _161  and  _162
REMARK   73  A    between atoms: _166  and  _168
REMARK   74  A    between atoms: _168  and  _169
REMARK   75  A    between atoms: _168  and  _171
REMARK   76  A    between atoms: _171  and  _172
REMARK   77  A    between atoms: _175  and  _177
REMARK   78  A    between atoms: _177  and  _178
REMARK   79  A    between atoms: _177  and  _180
REMARK   80  A    between atoms: _180  and  _181
REMARK   81  A    between atoms: _184  and  _186
REMARK   82  A    between atoms: _186  and  _187
REMARK   83  A    between atoms: _186  and  _189
REMARK   84  A    between atoms: _189  and  _190
REMARK   85  A    between atoms: _190  and  _191
REMARK   86  A    between atoms: _193  and  _195
REMARK   87  A    between atoms: _195  and  _196
REMARK   88  A    between atoms: _195  and  _198
REMARK   89  A    between atoms: _199  and  _200
REMARK   90  A    between atoms: _203  and  _205
REMARK   91  A    between atoms: _205  and  _206
REMARK   92  A    between atoms: _205  and  _208
REMARK   93  A    between atoms: _208  and  _209
REMARK   94  A    between atoms: _212  and  _214
REMARK   95  A    between atoms: _214  and  _215
REMARK   96  A    between atoms: _214  and  _217
REMARK   97  A    between atoms: _219  and  _221
REMARK   98  A    between atoms: _221  and  _222
REMARK   99  A    between atoms: _221  and  _224
REMARK  100  A    between atoms: _224  and  _225
REMARK  101  A    between atoms: _228  and  _230
REMARK  102  A    between atoms: _230  and  _231
REMARK  103  A    between atoms: _230  and  _233
REMARK  104  A    between atoms: _233  and  _234
REMARK  105  A    between atoms: _237  and  _239
REMARK  106  A    between atoms: _239  and  _240
REMARK  107  A    between atoms: _242  and  _244
REMARK  108  A    between atoms: _244  and  _245
REMARK  109  A    between atoms: _244  and  _247
REMARK  110  A    between atoms: _247  and  _248
REMARK  111  A    between atoms: _248  and  _249
REMARK  112  A    between atoms: _252  and  _254
REMARK  113  A    between atoms: _254  and  _255
REMARK  114  A    between atoms: _254  and  _257
REMARK  115  A    between atoms: _257  and  _258
REMARK  116  A    between atoms: _261  and  _263
REMARK  117  A    between atoms: _263  and  _264
REMARK  118  A    between atoms: _263  and  _266
REMARK  119  A    between atoms: _266  and  _267
REMARK  120  A    between atoms: _267  and  _268
REMARK  121  A    between atoms: _268  and  _269
REMARK  122  A    between atoms: _278  and  _280
REMARK  123  A    between atoms: _280  and  _281
REMARK  124  A    between atoms: _280  and  _283
REMARK  125  A    between atoms: _283  and  _284
REMARK  126  A    between atoms: _286  and  _288
REMARK  127  A    between atoms: _288  and  _289
REMARK  128  A    between atoms: _288  and  _291
REMARK  129  A    between atoms: _291  and  _292
REMARK  130  A    between atoms: _297  and  _299
REMARK  131  A    between atoms: _299  and  _300
REMARK  132  A    between atoms: _299  and  _302
REMARK  133  A    between atoms: _302  and  _303
REMARK  134  A    between atoms: _306  and  _308
REMARK  135  A    between atoms: _308  and  _309
REMARK  136  A    between atoms: _312  and  _314
REMARK  137  A    between atoms: _314  and  _315
REMARK  138  A    between atoms: _318  and  _320
REMARK  139  A    between atoms: _320  and  _321
REMARK  140  A    between atoms: _320  and  _323
REMARK  141  A    between atoms: _323  and  _324
REMARK  142  A    between atoms: _324  and  _325
REMARK  143  A    between atoms: _325  and  _326
REMARK  144  A    between atoms: _335  and  _337
REMARK  145  A    between atoms: _337  and  _338
REMARK  146  A    between atoms: _337  and  _340
REMARK  147  A    between atoms: _340  and  _341
REMARK  148  A    between atoms: _346  and  _348
REMARK  149  A    between atoms: _348  and  _349
REMARK  150  A    between atoms: _348  and  _351
REMARK  151  A    between atoms: _354  and  _356
REMARK  152  A    between atoms: _356  and  _357
REMARK  153  A    between atoms: _356  and  _359
REMARK  154  A    between atoms: _359  and  _360
REMARK  155  A    between atoms: _363  and  _365
REMARK  156  A    between atoms: _365  and  _366
REMARK  157  A    between atoms: _365  and  _368
REMARK  158  A    between atoms: _371  and  _373
REMARK  159  A    between atoms: _373  and  _374
REMARK  160  A    between atoms: _373  and  _376
REMARK  161  A    between atoms: _376  and  _377
REMARK  162  A    between atoms: _379  and  _381
REMARK  163  A    between atoms: _381  and  _382
REMARK  164  A    between atoms: _381  and  _384
REMARK  165  A    between atoms: _384  and  _385
REMARK  166  A    between atoms: _385  and  _386
REMARK  167  A    between atoms: _386  and  _387
REMARK  168  A    between atoms: _387  and  _388
REMARK  169  A    between atoms: _392  and  _394
REMARK  170  A    between atoms: _394  and  _395
REMARK  171  A    between atoms: _394  and  _397
REMARK  172  A    between atoms: _397  and  _398
REMARK  173  A    between atoms: _401  and  _403
REMARK  174  A    between atoms: _403  and  _404
REMARK  175  A    between atoms: _406  and  _408
REMARK  176  A    between atoms: _408  and  _409
REMARK  177  A    between atoms: _408  and  _411
REMARK  178  A    between atoms: _411  and  _412
REMARK  179  A    between atoms: _415  and  _417
REMARK  180  A    between atoms: _417  and  _418
REMARK  181  A    between atoms: _417  and  _420
REMARK  182  A    between atoms: _420  and  _421
REMARK  183  A    between atoms: _427  and  _429
REMARK  184  A    between atoms: _429  and  _430
REMARK  185  A    between atoms: _432  and  _434
REMARK  186  A    between atoms: _434  and  _435
REMARK  187  A    between atoms: _434  and  _437
REMARK  188  A    between atoms: _437  and  _438
REMARK  189  A    between atoms: _441  and  _443
REMARK  190  A    between atoms: _443  and  _444
REMARK  191  A    between atoms: _443  and  _446
REMARK  192  A    between atoms: _446  and  _447
REMARK  193  A    between atoms: _449  and  _451
REMARK  194  A    between atoms: _451  and  _452
REMARK  195  A    between atoms: _451  and  _454
REMARK  196  A    between atoms: _454  and  _455
REMARK  197  A    between atoms: _455  and  _456
REMARK  198  A    between atoms: _456  and  _457
REMARK  199  A    between atoms: _466  and  _468
REMARK  200  A    between atoms: _468  and  _469
REMARK  201  A    between atoms: _468  and  _471
REMARK  202  A    between atoms: _471  and  _472
REMARK  203  A    between atoms: _477  and  _478
REMARK  204  A    between atoms: _480  and  _482
REMARK  205  A    between atoms: _482  and  _483
REMARK  206  A    between atoms: _482  and  _485
REMARK  207  A    between atoms: _485  and  _486
REMARK  208  A    between atoms: _486  and  _487
REMARK                            x       y       z     vdW  Elec       q    Type
REMARK                         _______ _______ _______ _____ _____    ______ ____
ROOT
ATOM      1  O   HOH     1      15.914 -13.821 -42.519  0.00  0.00    +0.000 OA
ENDROOT
TORSDOF 0
REMARK  Name = ../refined-set-2016/4gu6/4gu6_pocket.pdb
REMARK  208 active torsions:
REMARK  status: ('A' for Active; 'I' for Inactive)
REMARK    1  A    between atoms: _1  and  _3
REMARK    2  A    between atoms: _3  and  _4
REMARK    3  A    between atoms: _3  and  _6
REMARK    4  A    between atoms: _8  and  _10
REMARK    5  A    between atoms: _10  and  _11
REMARK    6  A    between atoms: _10  and  _13
REMARK    7  A    between atoms: _13  and  _14
REMARK    8  A    between atoms: _17  and  _19
REMARK    9  A    between atoms: _19  and  _20
REMARK   10  A    between atoms: _22  and  _24
REMARK   11  A    between atoms: _24  and  _25
REMARK   12  A    between atoms: _24  and  _27
REMARK   13  A    between atoms: _27  and  _28
REMARK   14  A    between atoms: _28  and  _29
REMARK   15  A    between atoms: _32  and  _34
REMARK   16  A    between atoms: _34  and  _35
REMARK   17  A    between atoms: _37  and  _39
REMARK   18  A    between atoms: _39  and  _40
REMARK   19  A    between atoms: _39  and  _42
REMARK   20  A    between atoms: _42  and  _43
REMARK   21  A    between atoms: _43  and  _44
REMARK   22  A    between atoms: _49  and  _51
REMARK   23  A    between atoms: _51  and  _52
REMARK   24  A    between atoms: _54  and  _56
REMARK   25  A    between atoms: _56  and  _57
REMARK   26  A    between atoms: _56  and  _59
REMARK   27  A    between atoms: _59  and  _60
REMARK   28  A    between atoms: _63  and  _65
REMARK   29  A    between atoms: _65  and  _66
REMARK   30  A    between atoms: _65  and  _68
REMARK   31  A    between atoms: _71  and  _73
REMARK   32  A    between atoms: _73  and  _74
REMARK   33  A    between atoms: _73  and  _76
REMARK   34  A    between atoms: _76  and  _77
REMARK   35  A    between atoms: _82  and  _84
REMARK   36  A    between atoms: _84  and  _85
REMARK   37  A    between atoms: _84  and  _87
REMARK   38  A    between atoms: _87  and  _88
REMARK   39  A    between atoms: _88  and  _89
REMARK   40  A    between atoms: _94  and  _96
REMARK   41  A    between atoms: _96  and  _97
REMARK   42  A    between atoms: _100  and  _102
REMARK   43  A    between atoms: _102  and  _103
REMARK   44  A    between atoms: _102  and  _105
REMARK   45  A    between atoms: _108  and  _110
REMARK   46  A    between atoms: _110  and  _111
REMARK   47  A    between atoms: _114  and  _116
REMARK   48  A    between atoms: _116  and  _117
REMARK   49  A    between atoms: _116  and  _119
REMARK   50  A    between atoms: _119  and  _120
REMARK   51  A    between atoms: _123  and  _125
REMARK   52  A    between atoms: _125  and  _126
REMARK   53  A    between atoms: _125  and  _128
REMARK   54  A    between atoms: _128  and  _129
REMARK   55  A    between atoms: _129  and  _130
REMARK   56  A    between atoms: _130  and  _131
REMARK   57  A    between atoms: _131  and  _132
REMARK   58  A    between atoms: _136  and  _138
REMARK   59  A    between atoms: _138  and  _139
REMARK   60  A    between atoms: _138  and  _141
REMARK   61  A    between atoms: _141  and  _142
REMARK   62  A    between atoms: _142  and  _143
REMARK   63  A    between atoms: _145  and  _147
REMARK   64  A    between atoms: _147  and  _148
REMARK   65  A    between atoms: _147  and  _150
REMARK   66  A    between atoms: _153  and  _155
REMARK   67  A    between atoms: _155  and  _156
REMARK   68  A    between atoms: _155  and  _158
REMARK   69  A    between atoms: _158  and  _159
REMARK   70  A    between atoms: _159  and  _160
REMARK   71  A    between atoms: _160  and  _161
REMARK   72  A    between atoms: _161  and  _162
REMARK   73  A    between atoms: _166  and  _168
REMARK   74  A    between atoms: _168  and  _169
REMARK   75  A    between atoms: _168  and  _171
REMARK   76  A    between atoms: _171  and  _172
REMARK   77  A    between atoms: _175  and  _177
REMARK   78  A    between atoms: _177  and  _178
REMARK   79  A    between atoms: _177  and  _180
REMARK   80  A    between atoms: _180  and  _181
REMARK   81  A    between atoms: _184  and  _186
REMARK   82  A    between atoms: _186  and  _187
REMARK   83  A    between atoms: _186  and  _189
REMARK   84  A    between atoms: _189  and  _190
REMARK   85  A    between atoms: _190  and  _191
REMARK   86  A    between atoms: _193  and  _195
REMARK   87  A    between atoms: _195  and  _196
REMARK   88  A    between atoms: _195  and  _198
REMARK   89  A    between atoms: _199  and  _200
REMARK   90  A    between atoms: _203  and  _205
REMARK   91  A    between atoms: _205  and  _206
REMARK   92  A    between atoms: _205  and  _208
REMARK   93  A    between atoms: _208  and  _209
REMARK   94  A    between atoms: _212  and  _214
REMARK   95  A    between atoms: _214  and  _215
REMARK   96  A    between atoms: _214  and  _217
REMARK   97  A    between atoms: _219  and  _221
REMARK   98  A    between atoms: _221  and  _222
REMARK   99  A    between atoms: _221  and  _224
REMARK  100  A    between atoms: _224  and  _225
REMARK  101  A    between atoms: _228  and  _230
REMARK  102  A    between atoms: _230  and  _231
REMARK  103  A    between atoms: _230  and  _233
REMARK  104  A    between atoms: _233  and  _234
REMARK  105  A    between atoms: _237  and  _239
REMARK  106  A    between atoms: _239  and  _240
REMARK  107  A    between atoms: _242  and  _244
REMARK  108  A    between atoms: _244  and  _245
REMARK  109  A    between atoms: _244  and  _247
REMARK  110  A    between atoms: _247  and  _248
REMARK  111  A    between atoms: _248  and  _249
REMARK  112  A    between atoms: _252  and  _254
REMARK  113  A    between atoms: _254  and  _255
REMARK  114  A    between atoms: _254  and  _257
REMARK  115  A    between atoms: _257  and  _258
REMARK  116  A    between atoms: _261  and  _263
REMARK  117  A    between atoms: _263  and  _264
REMARK  118  A    between atoms: _263  and  _266
REMARK  119  A    between atoms: _266  and  _267
REMARK  120  A    between atoms: _267  and  _268
REMARK  121  A    between atoms: _268  and  _269
REMARK  122  A    between atoms: _278  and  _280
REMARK  123  A    between atoms: _280  and  _281
REMARK  124  A    between atoms: _280  and  _283
REMARK  125  A    between atoms: _283  and  _284
REMARK  126  A    between atoms: _286  and  _288
REMARK  127  A    between atoms: _288  and  _289
REMARK  128  A    between atoms: _288  and  _291
REMARK  129  A    between atoms: _291  and  _292
REMARK  130  A    between atoms: _297  and  _299
REMARK  131  A    between atoms: _299  and  _300
REMARK  132  A    between atoms: _299  and  _302
REMARK  133  A    between atoms: _302  and  _303
REMARK  134  A    between atoms: _306  and  _308
REMARK  135  A    between atoms: _308  and  _309
REMARK  136  A    between atoms: _312  and  _314
REMARK  137  A    between atoms: _314  and  _315
REMARK  138  A    between atoms: _318  and  _320
REMARK  139  A    between atoms: _320  and  _321
REMARK  140  A    between atoms: _320  and  _323
REMARK  141  A    between atoms: _323  and  _324
REMARK  142  A    between atoms: _324  and  _325
REMARK  143  A    between atoms: _325  and  _326
REMARK  144  A    between atoms: _335  and  _337
REMARK  145  A    between atoms: _337  and  _338
REMARK  146  A    between atoms: _337  and  _340
REMARK  147  A    between atoms: _340  and  _341
REMARK  148  A    between atoms: _346  and  _348
REMARK  149  A    between atoms: _348  and  _349
REMARK  150  A    between atoms: _348  and  _351
REMARK  151  A    between atoms: _354  and  _356
REMARK  152  A    between atoms: _356  and  _357
REMARK  153  A    between atoms: _356  and  _359
REMARK  154  A    between atoms: _359  and  _360
REMARK  155  A    between atoms: _363  and  _365
REMARK  156  A    between atoms: _365  and  _366
REMARK  157  A    between atoms: _365  and  _368
REMARK  158  A    between atoms: _371  and  _373
REMARK  159  A    between atoms: _373  and  _374
REMARK  160  A    between atoms: _373  and  _376
REMARK  161  A    between atoms: _376  and  _377
REMARK  162  A    between atoms: _379  and  _381
REMARK  163  A    between atoms: _381  and  _382
REMARK  164  A    between atoms: _381  and  _384
REMARK  165  A    between atoms: _384  and  _385
REMARK  166  A    between atoms: _385  and  _386
REMARK  167  A    between atoms: _386  and  _387
REMARK  168  A    between atoms: _387  and  _388
REMARK  169  A    between atoms: _392  and  _394
REMARK  170  A    between atoms: _394  and  _395
REMARK  171  A    between atoms: _394  and  _397
REMARK  172  A    between atoms: _397  and  _398
REMARK  173  A    between atoms: _401  and  _403
REMARK  174  A    between atoms: _403  and  _404
REMARK  175  A    between atoms: _406  and  _408
REMARK  176  A    between atoms: _408  and  _409
REMARK  177  A    between atoms: _408  and  _411
REMARK  178  A    between atoms: _411  and  _412
REMARK  179  A    between atoms: _415  and  _417
REMARK  180  A    between atoms: _417  and  _418
REMARK  181  A    between atoms: _417  and  _420
REMARK  182  A    between atoms: _420  and  _421
REMARK  183  A    between atoms: _427  and  _429
REMARK  184  A    between atoms: _429  and  _430
REMARK  185  A    between atoms: _432  and  _434
REMARK  186  A    between atoms: _434  and  _435
REMARK  187  A    between atoms: _434  and  _437
REMARK  188  A    between atoms: _437  and  _438
REMARK  189  A    between atoms: _441  and  _443
REMARK  190  A    between atoms: _443  and  _444
REMARK  191  A    between atoms: _443  and  _446
REMARK  192  A    between atoms: _446  and  _447
REMARK  193  A    between atoms: _449  and  _451
REMARK  194  A    between atoms: _451  and  _452
REMARK  195  A    between atoms: _451  and  _454
REMARK  196  A    between atoms: _454  and  _455
REMARK  197  A    between atoms: _455  and  _456
REMARK  198  A    between atoms: _456  and  _457
REMARK  199  A    between atoms: _466  and  _468
REMARK  200  A    between atoms: _468  and  _469
REMARK  201  A    between atoms: _468  and  _471
REMARK  202  A    between atoms: _471  and  _472
REMARK  203  A    between atoms: _477  and  _478
REMARK  204  A    between atoms: _480  and  _482
REMARK  205  A    between atoms: _482  and  _483
REMARK  206  A    between atoms: _482  and  _485
REMARK  207  A    between atoms: _485  and  _486
REMARK  208  A    between atoms: _486  and  _487
REMARK                            x       y       z     vdW  Elec       q    Type
REMARK                         _______ _______ _______ _____ _____    ______ ____
ROOT
ATOM      1  O   HOH     1      18.776   3.402 -38.935  0.00  0.00    +0.000 OA
ENDROOT
TORSDOF 0
REMARK  Name = ../refined-set-2016/4gu6/4gu6_pocket.pdb
REMARK  208 active torsions:
REMARK  status: ('A' for Active; 'I' for Inactive)
REMARK    1  A    between atoms: _1  and  _3
REMARK    2  A    between atoms: _3  and  _4
REMARK    3  A    between atoms: _3  and  _6
REMARK    4  A    between atoms: _8  and  _10
REMARK    5  A    between atoms: _10  and  _11
REMARK    6  A    between atoms: _10  and  _13
REMARK    7  A    between atoms: _13  and  _14
REMARK    8  A    between atoms: _17  and  _19
REMARK    9  A    between atoms: _19  and  _20
REMARK   10  A    between atoms: _22  and  _24
REMARK   11  A    between atoms: _24  and  _25
REMARK   12  A    between atoms: _24  and  _27
REMARK   13  A    between atoms: _27  and  _28
REMARK   14  A    between atoms: _28  and  _29
REMARK   15  A    between atoms: _32  and  _34
REMARK   16  A    between atoms: _34  and  _35
REMARK   17  A    between atoms: _37  and  _39
REMARK   18  A    between atoms: _39  and  _40
REMARK   19  A    between atoms: _39  and  _42
REMARK   20  A    between atoms: _42  and  _43
REMARK   21  A    between atoms: _43  and  _44
REMARK   22  A    between atoms: _49  and  _51
REMARK   23  A    between atoms: _51  and  _52
REMARK   24  A    between atoms: _54  and  _56
REMARK   25  A    between atoms: _56  and  _57
REMARK   26  A    between atoms: _56  and  _59
REMARK   27  A    between atoms: _59  and  _60
REMARK   28  A    between atoms: _63  and  _65
REMARK   29  A    between atoms: _65  and  _66
REMARK   30  A    between atoms: _65  and  _68
REMARK   31  A    between atoms: _71  and  _73
REMARK   32  A    between atoms: _73  and  _74
REMARK   33  A    between atoms: _73  and  _76
REMARK   34  A    between atoms: _76  and  _77
REMARK   35  A    between atoms: _82  and  _84
REMARK   36  A    between atoms: _84  and  _85
REMARK   37  A    between atoms: _84  and  _87
REMARK   38  A    between atoms: _87  and  _88
REMARK   39  A    between atoms: _88  and  _89
REMARK   40  A    between atoms: _94  and  _96
REMARK   41  A    between atoms: _96  and  _97
REMARK   42  A    between atoms: _100  and  _102
REMARK   43  A    between atoms: _102  and  _103
REMARK   44  A    between atoms: _102  and  _105
REMARK   45  A    between atoms: _108  and  _110
REMARK   46  A    between atoms: _110  and  _111
REMARK   47  A    between atoms: _114  and  _116
REMARK   48  A    between atoms: _116  and  _117
REMARK   49  A    between atoms: _116  and  _119
REMARK   50  A    between atoms: _119  and  _120
REMARK   51  A    between atoms: _123  and  _125
REMARK   52  A    between atoms: _125  and  _126
REMARK   53  A    between atoms: _125  and  _128
REMARK   54  A    between atoms: _128  and  _129
REMARK   55  A    between atoms: _129  and  _130
REMARK   56  A    between atoms: _130  and  _131
REMARK   57  A    between atoms: _131  and  _132
REMARK   58  A    between atoms: _136  and  _138
REMARK   59  A    between atoms: _138  and  _139
REMARK   60  A    between atoms: _138  and  _141
REMARK   61  A    between atoms: _141  and  _142
REMARK   62  A    between atoms: _142  and  _143
REMARK   63  A    between atoms: _145  and  _147
REMARK   64  A    between atoms: _147  and  _148
REMARK   65  A    between atoms: _147  and  _150
REMARK   66  A    between atoms: _153  and  _155
REMARK   67  A    between atoms: _155  and  _156
REMARK   68  A    between atoms: _155  and  _158
REMARK   69  A    between atoms: _158  and  _159
REMARK   70  A    between atoms: _159  and  _160
REMARK   71  A    between atoms: _160  and  _161
REMARK   72  A    between atoms: _161  and  _162
REMARK   73  A    between atoms: _166  and  _168
REMARK   74  A    between atoms: _168  and  _169
REMARK   75  A    between atoms: _168  and  _171
REMARK   76  A    between atoms: _171  and  _172
REMARK   77  A    between atoms: _175  and  _177
REMARK   78  A    between atoms: _177  and  _178
REMARK   79  A    between atoms: _177  and  _180
REMARK   80  A    between atoms: _180  and  _181
REMARK   81  A    between atoms: _184  and  _186
REMARK   82  A    between atoms: _186  and  _187
REMARK   83  A    between atoms: _186  and  _189
REMARK   84  A    between atoms: _189  and  _190
REMARK   85  A    between atoms: _190  and  _191
REMARK   86  A    between atoms: _193  and  _195
REMARK   87  A    between atoms: _195  and  _196
REMARK   88  A    between atoms: _195  and  _198
REMARK   89  A    between atoms: _199  and  _200
REMARK   90  A    between atoms: _203  and  _205
REMARK   91  A    between atoms: _205  and  _206
REMARK   92  A    between atoms: _205  and  _208
REMARK   93  A    between atoms: _208  and  _209
REMARK   94  A    between atoms: _212  and  _214
REMARK   95  A    between atoms: _214  and  _215
REMARK   96  A    between atoms: _214  and  _217
REMARK   97  A    between atoms: _219  and  _221
REMARK   98  A    between atoms: _221  and  _222
REMARK   99  A    between atoms: _221  and  _224
REMARK  100  A    between atoms: _224  and  _225
REMARK  101  A    between atoms: _228  and  _230
REMARK  102  A    between atoms: _230  and  _231
REMARK  103  A    between atoms: _230  and  _233
REMARK  104  A    between atoms: _233  and  _234
REMARK  105  A    between atoms: _237  and  _239
REMARK  106  A    between atoms: _239  and  _240
REMARK  107  A    between atoms: _242  and  _244
REMARK  108  A    between atoms: _244  and  _245
REMARK  109  A    between atoms: _244  and  _247
REMARK  110  A    between atoms: _247  and  _248
REMARK  111  A    between atoms: _248  and  _249
REMARK  112  A    between atoms: _252  and  _254
REMARK  113  A    between atoms: _254  and  _255
REMARK  114  A    between atoms: _254  and  _257
REMARK  115  A    between atoms: _257  and  _258
REMARK  116  A    between atoms: _261  and  _263
REMARK  117  A    between atoms: _263  and  _264
REMARK  118  A    between atoms: _263  and  _266
REMARK  119  A    between atoms: _266  and  _267
REMARK  120  A    between atoms: _267  and  _268
REMARK  121  A    between atoms: _268  and  _269
REMARK  122  A    between atoms: _278  and  _280
REMARK  123  A    between atoms: _280  and  _281
REMARK  124  A    between atoms: _280  and  _283
REMARK  125  A    between atoms: _283  and  _284
REMARK  126  A    between atoms: _286  and  _288
REMARK  127  A    between atoms: _288  and  _289
REMARK  128  A    between atoms: _288  and  _291
REMARK  129  A    between atoms: _291  and  _292
REMARK  130  A    between atoms: _297  and  _299
REMARK  131  A    between atoms: _299  and  _300
REMARK  132  A    between atoms: _299  and  _302
REMARK  133  A    between atoms: _302  and  _303
REMARK  134  A    between atoms: _306  and  _308
REMARK  135  A    between atoms: _308  and  _309
REMARK  136  A    between atoms: _312  and  _314
REMARK  137  A    between atoms: _314  and  _315
REMARK  138  A    between atoms: _318  and  _320
REMARK  139  A    between atoms: _320  and  _321
REMARK  140  A    between atoms: _320  and  _323
REMARK  141  A    between atoms: _323  and  _324
REMARK  142  A    between atoms: _324  and  _325
REMARK  143  A    between atoms: _325  and  _326
REMARK  144  A    between atoms: _335  and  _337
REMARK  145  A    between atoms: _337  and  _338
REMARK  146  A    between atoms: _337  and  _340
REMARK  147  A    between atoms: _340  and  _341
REMARK  148  A    between atoms: _346  and  _348
REMARK  149  A    between atoms: _348  and  _349
REMARK  150  A    between atoms: _348  and  _351
REMARK  151  A    between atoms: _354  and  _356
REMARK  152  A    between atoms: _356  and  _357
REMARK  153  A    between atoms: _356  and  _359
REMARK  154  A    between atoms: _359  and  _360
REMARK  155  A    between atoms: _363  and  _365
REMARK  156  A    between atoms: _365  and  _366
REMARK  157  A    between atoms: _365  and  _368
REMARK  158  A    between atoms: _371  and  _373
REMARK  159  A    between atoms: _373  and  _374
REMARK  160  A    between atoms: _373  and  _376
REMARK  161  A    between atoms: _376  and  _377
REMARK  162  A    between atoms: _379  and  _381
REMARK  163  A    between atoms: _381  and  _382
REMARK  164  A    between atoms: _381  and  _384
REMARK  165  A    between atoms: _384  and  _385
REMARK  166  A    between atoms: _385  and  _386
REMARK  167  A    between atoms: _386  and  _387
REMARK  168  A    between atoms: _387  and  _388
REMARK  169  A    between atoms: _392  and  _394
REMARK  170  A    between atoms: _394  and  _395
REMARK  171  A    between atoms: _394  and  _397
REMARK  172  A    between atoms: _397  and  _398
REMARK  173  A    between atoms: _401  and  _403
REMARK  174  A    between atoms: _403  and  _404
REMARK  175  A    between atoms: _406  and  _408
REMARK  176  A    between atoms: _408  and  _409
REMARK  177  A    between atoms: _408  and  _411
REMARK  178  A    between atoms: _411  and  _412
REMARK  179  A    between atoms: _415  and  _417
REMARK  180  A    between atoms: _417  and  _418
REMARK  181  A    between atoms: _417  and  _420
REMARK  182  A    between atoms: _420  and  _421
REMARK  183  A    between atoms: _427  and  _429
REMARK  184  A    between atoms: _429  and  _430
REMARK  185  A    between atoms: _432  and  _434
REMARK  186  A    between atoms: _434  and  _435
REMARK  187  A    between atoms: _434  and  _437
REMARK  188  A    between atoms: _437  and  _438
REMARK  189  A    between atoms: _441  and  _443
REMARK  190  A    between atoms: _443  and  _444
REMARK  191  A    between atoms: _443  and  _446
REMARK  192  A    between atoms: _446  and  _447
REMARK  193  A    between atoms: _449  and  _451
REMARK  194  A    between atoms: _451  and  _452
REMARK  195  A    between atoms: _451  and  _454
REMARK  196  A    between atoms: _454  and  _455
REMARK  197  A    between atoms: _455  and  _456
REMARK  198  A    between atoms: _456  and  _457
REMARK  199  A    between atoms: _466  and  _468
REMARK  200  A    between atoms: _468  and  _469
REMARK  201  A    between atoms: _468  and  _471
REMARK  202  A    between atoms: _471  and  _472
REMARK  203  A    between atoms: _477  and  _478
REMARK  204  A    between atoms: _480  and  _482
REMARK  205  A    between atoms: _482  and  _483
REMARK  206  A    between atoms: _482  and  _485
REMARK  207  A    between atoms: _485  and  _486
REMARK  208  A    between atoms: _486  and  _487
REMARK                            x       y       z     vdW  Elec       q    Type
REMARK                         _______ _______ _______ _____ _____    ______ ____
ROOT
ATOM      1  O   HOH     1      27.640 -10.740 -34.576  0.00  0.00    +0.000 OA
ENDROOT
TORSDOF 0
REMARK  Name = ../refined-set-2016/4gu6/4gu6_pocket.pdb
REMARK  208 active torsions:
REMARK  status: ('A' for Active; 'I' for Inactive)
REMARK    1  A    between atoms: _1  and  _3
REMARK    2  A    between atoms: _3  and  _4
REMARK    3  A    between atoms: _3  and  _6
REMARK    4  A    between atoms: _8  and  _10
REMARK    5  A    between atoms: _10  and  _11
REMARK    6  A    between atoms: _10  and  _13
REMARK    7  A    between atoms: _13  and  _14
REMARK    8  A    between atoms: _17  and  _19
REMARK    9  A    between atoms: _19  and  _20
REMARK   10  A    between atoms: _22  and  _24
REMARK   11  A    between atoms: _24  and  _25
REMARK   12  A    between atoms: _24  and  _27
REMARK   13  A    between atoms: _27  and  _28
REMARK   14  A    between atoms: _28  and  _29
REMARK   15  A    between atoms: _32  and  _34
REMARK   16  A    between atoms: _34  and  _35
REMARK   17  A    between atoms: _37  and  _39
REMARK   18  A    between atoms: _39  and  _40
REMARK   19  A    between atoms: _39  and  _42
REMARK   20  A    between atoms: _42  and  _43
REMARK   21  A    between atoms: _43  and  _44
REMARK   22  A    between atoms: _49  and  _51
REMARK   23  A    between atoms: _51  and  _52
REMARK   24  A    between atoms: _54  and  _56
REMARK   25  A    between atoms: _56  and  _57
REMARK   26  A    between atoms: _56  and  _59
REMARK   27  A    between atoms: _59  and  _60
REMARK   28  A    between atoms: _63  and  _65
REMARK   29  A    between atoms: _65  and  _66
REMARK   30  A    between atoms: _65  and  _68
REMARK   31  A    between atoms: _71  and  _73
REMARK   32  A    between atoms: _73  and  _74
REMARK   33  A    between atoms: _73  and  _76
REMARK   34  A    between atoms: _76  and  _77
REMARK   35  A    between atoms: _82  and  _84
REMARK   36  A    between atoms: _84  and  _85
REMARK   37  A    between atoms: _84  and  _87
REMARK   38  A    between atoms: _87  and  _88
REMARK   39  A    between atoms: _88  and  _89
REMARK   40  A    between atoms: _94  and  _96
REMARK   41  A    between atoms: _96  and  _97
REMARK   42  A    between atoms: _100  and  _102
REMARK   43  A    between atoms: _102  and  _103
REMARK   44  A    between atoms: _102  and  _105
REMARK   45  A    between atoms: _108  and  _110
REMARK   46  A    between atoms: _110  and  _111
REMARK   47  A    between atoms: _114  and  _116
REMARK   48  A    between atoms: _116  and  _117
REMARK   49  A    between atoms: _116  and  _119
REMARK   50  A    between atoms: _119  and  _120
REMARK   51  A    between atoms: _123  and  _125
REMARK   52  A    between atoms: _125  and  _126
REMARK   53  A    between atoms: _125  and  _128
REMARK   54  A    between atoms: _128  and  _129
REMARK   55  A    between atoms: _129  and  _130
REMARK   56  A    between atoms: _130  and  _131
REMARK   57  A    between atoms: _131  and  _132
REMARK   58  A    between atoms: _136  and  _138
REMARK   59  A    between atoms: _138  and  _139
REMARK   60  A    between atoms: _138  and  _141
REMARK   61  A    between atoms: _141  and  _142
REMARK   62  A    between atoms: _142  and  _143
REMARK   63  A    between atoms: _145  and  _147
REMARK   64  A    between atoms: _147  and  _148
REMARK   65  A    between atoms: _147  and  _150
REMARK   66  A    between atoms: _153  and  _155
REMARK   67  A    between atoms: _155  and  _156
REMARK   68  A    between atoms: _155  and  _158
REMARK   69  A    between atoms: _158  and  _159
REMARK   70  A    between atoms: _159  and  _160
REMARK   71  A    between atoms: _160  and  _161
REMARK   72  A    between atoms: _161  and  _162
REMARK   73  A    between atoms: _166  and  _168
REMARK   74  A    between atoms: _168  and  _169
REMARK   75  A    between atoms: _168  and  _171
REMARK   76  A    between atoms: _171  and  _172
REMARK   77  A    between atoms: _175  and  _177
REMARK   78  A    between atoms: _177  and  _178
REMARK   79  A    between atoms: _177  and  _180
REMARK   80  A    between atoms: _180  and  _181
REMARK   81  A    between atoms: _184  and  _186
REMARK   82  A    between atoms: _186  and  _187
REMARK   83  A    between atoms: _186  and  _189
REMARK   84  A    between atoms: _189  and  _190
REMARK   85  A    between atoms: _190  and  _191
REMARK   86  A    between atoms: _193  and  _195
REMARK   87  A    between atoms: _195  and  _196
REMARK   88  A    between atoms: _195  and  _198
REMARK   89  A    between atoms: _199  and  _200
REMARK   90  A    between atoms: _203  and  _205
REMARK   91  A    between atoms: _205  and  _206
REMARK   92  A    between atoms: _205  and  _208
REMARK   93  A    between atoms: _208  and  _209
REMARK   94  A    between atoms: _212  and  _214
REMARK   95  A    between atoms: _214  and  _215
REMARK   96  A    between atoms: _214  and  _217
REMARK   97  A    between atoms: _219  and  _221
REMARK   98  A    between atoms: _221  and  _222
REMARK   99  A    between atoms: _221  and  _224
REMARK  100  A    between atoms: _224  and  _225
REMARK  101  A    between atoms: _228  and  _230
REMARK  102  A    between atoms: _230  and  _231
REMARK  103  A    between atoms: _230  and  _233
REMARK  104  A    between atoms: _233  and  _234
REMARK  105  A    between atoms: _237  and  _239
REMARK  106  A    between atoms: _239  and  _240
REMARK  107  A    between atoms: _242  and  _244
REMARK  108  A    between atoms: _244  and  _245
REMARK  109  A    between atoms: _244  and  _247
REMARK  110  A    between atoms: _247  and  _248
REMARK  111  A    between atoms: _248  and  _249
REMARK  112  A    between atoms: _252  and  _254
REMARK  113  A    between atoms: _254  and  _255
REMARK  114  A    between atoms: _254  and  _257
REMARK  115  A    between atoms: _257  and  _258
REMARK  116  A    between atoms: _261  and  _263
REMARK  117  A    between atoms: _263  and  _264
REMARK  118  A    between atoms: _263  and  _266
REMARK  119  A    between atoms: _266  and  _267
REMARK  120  A    between atoms: _267  and  _268
REMARK  121  A    between atoms: _268  and  _269
REMARK  122  A    between atoms: _278  and  _280
REMARK  123  A    between atoms: _280  and  _281
REMARK  124  A    between atoms: _280  and  _283
REMARK  125  A    between atoms: _283  and  _284
REMARK  126  A    between atoms: _286  and  _288
REMARK  127  A    between atoms: _288  and  _289
REMARK  128  A    between atoms: _288  and  _291
REMARK  129  A    between atoms: _291  and  _292
REMARK  130  A    between atoms: _297  and  _299
REMARK  131  A    between atoms: _299  and  _300
REMARK  132  A    between atoms: _299  and  _302
REMARK  133  A    between atoms: _302  and  _303
REMARK  134  A    between atoms: _306  and  _308
REMARK  135  A    between atoms: _308  and  _309
REMARK  136  A    between atoms: _312  and  _314
REMARK  137  A    between atoms: _314  and  _315
REMARK  138  A    between atoms: _318  and  _320
REMARK  139  A    between atoms: _320  and  _321
REMARK  140  A    between atoms: _320  and  _323
REMARK  141  A    between atoms: _323  and  _324
REMARK  142  A    between atoms: _324  and  _325
REMARK  143  A    between atoms: _325  and  _326
REMARK  144  A    between atoms: _335  and  _337
REMARK  145  A    between atoms: _337  and  _338
REMARK  146  A    between atoms: _337  and  _340
REMARK  147  A    between atoms: _340  and  _341
REMARK  148  A    between atoms: _346  and  _348
REMARK  149  A    between atoms: _348  and  _349
REMARK  150  A    between atoms: _348  and  _351
REMARK  151  A    between atoms: _354  and  _356
REMARK  152  A    between atoms: _356  and  _357
REMARK  153  A    between atoms: _356  and  _359
REMARK  154  A    between atoms: _359  and  _360
REMARK  155  A    between atoms: _363  and  _365
REMARK  156  A    between atoms: _365  and  _366
REMARK  157  A    between atoms: _365  and  _368
REMARK  158  A    between atoms: _371  and  _373
REMARK  159  A    between atoms: _373  and  _374
REMARK  160  A    between atoms: _373  and  _376
REMARK  161  A    between atoms: _376  and  _377
REMARK  162  A    between atoms: _379  and  _381
REMARK  163  A    between atoms: _381  and  _382
REMARK  164  A    between atoms: _381  and  _384
REMARK  165  A    between atoms: _384  and  _385
REMARK  166  A    between atoms: _385  and  _386
REMARK  167  A    between atoms: _386  and  _387
REMARK  168  A    between atoms: _387  and  _388
REMARK  169  A    between atoms: _392  and  _394
REMARK  170  A    between atoms: _394  and  _395
REMARK  171  A    between atoms: _394  and  _397
REMARK  172  A    between atoms: _397  and  _398
REMARK  173  A    between atoms: _401  and  _403
REMARK  174  A    between atoms: _403  and  _404
REMARK  175  A    between atoms: _406  and  _408
REMARK  176  A    between atoms: _408  and  _409
REMARK  177  A    between atoms: _408  and  _411
REMARK  178  A    between atoms: _411  and  _412
REMARK  179  A    between atoms: _415  and  _417
REMARK  180  A    between atoms: _417  and  _418
REMARK  181  A    between atoms: _417  and  _420
REMARK  182  A    between atoms: _420  and  _421
REMARK  183  A    between atoms: _427  and  _429
REMARK  184  A    between atoms: _429  and  _430
REMARK  185  A    between atoms: _432  and  _434
REMARK  186  A    between atoms: _434  and  _435
REMARK  187  A    between atoms: _434  and  _437
REMARK  188  A    between atoms: _437  and  _438
REMARK  189  A    between atoms: _441  and  _443
REMARK  190  A    between atoms: _443  and  _444
REMARK  191  A    between atoms: _443  and  _446
REMARK  192  A    between atoms: _446  and  _447
REMARK  193  A    between atoms: _449  and  _451
REMARK  194  A    between atoms: _451  and  _452
REMARK  195  A    between atoms: _451  and  _454
REMARK  196  A    between atoms: _454  and  _455
REMARK  197  A    between atoms: _455  and  _456
REMARK  198  A    between atoms: _456  and  _457
REMARK  199  A    between atoms: _466  and  _468
REMARK  200  A    between atoms: _468  and  _469
REMARK  201  A    between atoms: _468  and  _471
REMARK  202  A    between atoms: _471  and  _472
REMARK  203  A    between atoms: _477  and  _478
REMARK  204  A    between atoms: _480  and  _482
REMARK  205  A    between atoms: _482  and  _483
REMARK  206  A    between atoms: _482  and  _485
REMARK  207  A    between atoms: _485  and  _486
REMARK  208  A    between atoms: _486  and  _487
REMARK                            x       y       z     vdW  Elec       q    Type
REMARK                         _______ _______ _______ _____ _____    ______ ____
ROOT
ATOM      1  O   HOH     1      10.591  -5.869 -45.069  0.00  0.00    +0.000 OA
ENDROOT
TORSDOF 0
REMARK  Name = ../refined-set-2016/4gu6/4gu6_pocket.pdb
REMARK  208 active torsions:
REMARK  status: ('A' for Active; 'I' for Inactive)
REMARK    1  A    between atoms: _1  and  _3
REMARK    2  A    between atoms: _3  and  _4
REMARK    3  A    between atoms: _3  and  _6
REMARK    4  A    between atoms: _8  and  _10
REMARK    5  A    between atoms: _10  and  _11
REMARK    6  A    between atoms: _10  and  _13
REMARK    7  A    between atoms: _13  and  _14
REMARK    8  A    between atoms: _17  and  _19
REMARK    9  A    between atoms: _19  and  _20
REMARK   10  A    between atoms: _22  and  _24
REMARK   11  A    between atoms: _24  and  _25
REMARK   12  A    between atoms: _24  and  _27
REMARK   13  A    between atoms: _27  and  _28
REMARK   14  A    between atoms: _28  and  _29
REMARK   15  A    between atoms: _32  and  _34
REMARK   16  A    between atoms: _34  and  _35
REMARK   17  A    between atoms: _37  and  _39
REMARK   18  A    between atoms: _39  and  _40
REMARK   19  A    between atoms: _39  and  _42
REMARK   20  A    between atoms: _42  and  _43
REMARK   21  A    between atoms: _43  and  _44
REMARK   22  A    between atoms: _49  and  _51
REMARK   23  A    between atoms: _51  and  _52
REMARK   24  A    between atoms: _54  and  _56
REMARK   25  A    between atoms: _56  and  _57
REMARK   26  A    between atoms: _56  and  _59
REMARK   27  A    between atoms: _59  and  _60
REMARK   28  A    between atoms: _63  and  _65
REMARK   29  A    between atoms: _65  and  _66
REMARK   30  A    between atoms: _65  and  _68
REMARK   31  A    between atoms: _71  and  _73
REMARK   32  A    between atoms: _73  and  _74
REMARK   33  A    between atoms: _73  and  _76
REMARK   34  A    between atoms: _76  and  _77
REMARK   35  A    between atoms: _82  and  _84
REMARK   36  A    between atoms: _84  and  _85
REMARK   37  A    between atoms: _84  and  _87
REMARK   38  A    between atoms: _87  and  _88
REMARK   39  A    between atoms: _88  and  _89
REMARK   40  A    between atoms: _94  and  _96
REMARK   41  A    between atoms: _96  and  _97
REMARK   42  A    between atoms: _100  and  _102
REMARK   43  A    between atoms: _102  and  _103
REMARK   44  A    between atoms: _102  and  _105
REMARK   45  A    between atoms: _108  and  _110
REMARK   46  A    between atoms: _110  and  _111
REMARK   47  A    between atoms: _114  and  _116
REMARK   48  A    between atoms: _116  and  _117
REMARK   49  A    between atoms: _116  and  _119
REMARK   50  A    between atoms: _119  and  _120
REMARK   51  A    between atoms: _123  and  _125
REMARK   52  A    between atoms: _125  and  _126
REMARK   53  A    between atoms: _125  and  _128
REMARK   54  A    between atoms: _128  and  _129
REMARK   55  A    between atoms: _129  and  _130
REMARK   56  A    between atoms: _130  and  _131
REMARK   57  A    between atoms: _131  and  _132
REMARK   58  A    between atoms: _136  and  _138
REMARK   59  A    between atoms: _138  and  _139
REMARK   60  A    between atoms: _138  and  _141
REMARK   61  A    between atoms: _141  and  _142
REMARK   62  A    between atoms: _142  and  _143
REMARK   63  A    between atoms: _145  and  _147
REMARK   64  A    between atoms: _147  and  _148
REMARK   65  A    between atoms: _147  and  _150
REMARK   66  A    between atoms: _153  and  _155
REMARK   67  A    between atoms: _155  and  _156
REMARK   68  A    between atoms: _155  and  _158
REMARK   69  A    between atoms: _158  and  _159
REMARK   70  A    between atoms: _159  and  _160
REMARK   71  A    between atoms: _160  and  _161
REMARK   72  A    between atoms: _161  and  _162
REMARK   73  A    between atoms: _166  and  _168
REMARK   74  A    between atoms: _168  and  _169
REMARK   75  A    between atoms: _168  and  _171
REMARK   76  A    between atoms: _171  and  _172
REMARK   77  A    between atoms: _175  and  _177
REMARK   78  A    between atoms: _177  and  _178
REMARK   79  A    between atoms: _177  and  _180
REMARK   80  A    between atoms: _180  and  _181
REMARK   81  A    between atoms: _184  and  _186
REMARK   82  A    between atoms: _186  and  _187
REMARK   83  A    between atoms: _186  and  _189
REMARK   84  A    between atoms: _189  and  _190
REMARK   85  A    between atoms: _190  and  _191
REMARK   86  A    between atoms: _193  and  _195
REMARK   87  A    between atoms: _195  and  _196
REMARK   88  A    between atoms: _195  and  _198
REMARK   89  A    between atoms: _199  and  _200
REMARK   90  A    between atoms: _203  and  _205
REMARK   91  A    between atoms: _205  and  _206
REMARK   92  A    between atoms: _205  and  _208
REMARK   93  A    between atoms: _208  and  _209
REMARK   94  A    between atoms: _212  and  _214
REMARK   95  A    between atoms: _214  and  _215
REMARK   96  A    between atoms: _214  and  _217
REMARK   97  A    between atoms: _219  and  _221
REMARK   98  A    between atoms: _221  and  _222
REMARK   99  A    between atoms: _221  and  _224
REMARK  100  A    between atoms: _224  and  _225
REMARK  101  A    between atoms: _228  and  _230
REMARK  102  A    between atoms: _230  and  _231
REMARK  103  A    between atoms: _230  and  _233
REMARK  104  A    between atoms: _233  and  _234
REMARK  105  A    between atoms: _237  and  _239
REMARK  106  A    between atoms: _239  and  _240
REMARK  107  A    between atoms: _242  and  _244
REMARK  108  A    between atoms: _244  and  _245
REMARK  109  A    between atoms: _244  and  _247
REMARK  110  A    between atoms: _247  and  _248
REMARK  111  A    between atoms: _248  and  _249
REMARK  112  A    between atoms: _252  and  _254
REMARK  113  A    between atoms: _254  and  _255
REMARK  114  A    between atoms: _254  and  _257
REMARK  115  A    between atoms: _257  and  _258
REMARK  116  A    between atoms: _261  and  _263
REMARK  117  A    between atoms: _263  and  _264
REMARK  118  A    between atoms: _263  and  _266
REMARK  119  A    between atoms: _266  and  _267
REMARK  120  A    between atoms: _267  and  _268
REMARK  121  A    between atoms: _268  and  _269
REMARK  122  A    between atoms: _278  and  _280
REMARK  123  A    between atoms: _280  and  _281
REMARK  124  A    between atoms: _280  and  _283
REMARK  125  A    between atoms: _283  and  _284
REMARK  126  A    between atoms: _286  and  _288
REMARK  127  A    between atoms: _288  and  _289
REMARK  128  A    between atoms: _288  and  _291
REMARK  129  A    between atoms: _291  and  _292
REMARK  130  A    between atoms: _297  and  _299
REMARK  131  A    between atoms: _299  and  _300
REMARK  132  A    between atoms: _299  and  _302
REMARK  133  A    between atoms: _302  and  _303
REMARK  134  A    between atoms: _306  and  _308
REMARK  135  A    between atoms: _308  and  _309
REMARK  136  A    between atoms: _312  and  _314
REMARK  137  A    between atoms: _314  and  _315
REMARK  138  A    between atoms: _318  and  _320
REMARK  139  A    between atoms: _320  and  _321
REMARK  140  A    between atoms: _320  and  _323
REMARK  141  A    between atoms: _323  and  _324
REMARK  142  A    between atoms: _324  and  _325
REMARK  143  A    between atoms: _325  and  _326
REMARK  144  A    between atoms: _335  and  _337
REMARK  145  A    between atoms: _337  and  _338
REMARK  146  A    between atoms: _337  and  _340
REMARK  147  A    between atoms: _340  and  _341
REMARK  148  A    between atoms: _346  and  _348
REMARK  149  A    between atoms: _348  and  _349
REMARK  150  A    between atoms: _348  and  _351
REMARK  151  A    between atoms: _354  and  _356
REMARK  152  A    between atoms: _356  and  _357
REMARK  153  A    between atoms: _356  and  _359
REMARK  154  A    between atoms: _359  and  _360
REMARK  155  A    between atoms: _363  and  _365
REMARK  156  A    between atoms: _365  and  _366
REMARK  157  A    between atoms: _365  and  _368
REMARK  158  A    between atoms: _371  and  _373
REMARK  159  A    between atoms: _373  and  _374
REMARK  160  A    between atoms: _373  and  _376
REMARK  161  A    between atoms: _376  and  _377
REMARK  162  A    between atoms: _379  and  _381
REMARK  163  A    between atoms: _381  and  _382
REMARK  164  A    between atoms: _381  and  _384
REMARK  165  A    between atoms: _384  and  _385
REMARK  166  A    between atoms: _385  and  _386
REMARK  167  A    between atoms: _386  and  _387
REMARK  168  A    between atoms: _387  and  _388
REMARK  169  A    between atoms: _392  and  _394
REMARK  170  A    between atoms: _394  and  _395
REMARK  171  A    between atoms: _394  and  _397
REMARK  172  A    between atoms: _397  and  _398
REMARK  173  A    between atoms: _401  and  _403
REMARK  174  A    between atoms: _403  and  _404
REMARK  175  A    between atoms: _406  and  _408
REMARK  176  A    between atoms: _408  and  _409
REMARK  177  A    between atoms: _408  and  _411
REMARK  178  A    between atoms: _411  and  _412
REMARK  179  A    between atoms: _415  and  _417
REMARK  180  A    between atoms: _417  and  _418
REMARK  181  A    between atoms: _417  and  _420
REMARK  182  A    between atoms: _420  and  _421
REMARK  183  A    between atoms: _427  and  _429
REMARK  184  A    between atoms: _429  and  _430
REMARK  185  A    between atoms: _432  and  _434
REMARK  186  A    between atoms: _434  and  _435
REMARK  187  A    between atoms: _434  and  _437
REMARK  188  A    between atoms: _437  and  _438
REMARK  189  A    between atoms: _441  and  _443
REMARK  190  A    between atoms: _443  and  _444
REMARK  191  A    between atoms: _443  and  _446
REMARK  192  A    between atoms: _446  and  _447
REMARK  193  A    between atoms: _449  and  _451
REMARK  194  A    between atoms: _451  and  _452
REMARK  195  A    between atoms: _451  and  _454
REMARK  196  A    between atoms: _454  and  _455
REMARK  197  A    between atoms: _455  and  _456
REMARK  198  A    between atoms: _456  and  _457
REMARK  199  A    between atoms: _466  and  _468
REMARK  200  A    between atoms: _468  and  _469
REMARK  201  A    between atoms: _468  and  _471
REMARK  202  A    between atoms: _471  and  _472
REMARK  203  A    between atoms: _477  and  _478
REMARK  204  A    between atoms: _480  and  _482
REMARK  205  A    between atoms: _482  and  _483
REMARK  206  A    between atoms: _482  and  _485
REMARK  207  A    between atoms: _485  and  _486
REMARK  208  A    between atoms: _486  and  _487
REMARK                            x       y       z     vdW  Elec       q    Type
REMARK                         _______ _______ _______ _____ _____    ______ ____
ROOT
ATOM      1  O   HOH     1      22.567 -16.553 -42.106  0.00  0.00    +0.000 OA
ENDROOT
TORSDOF 0
REMARK  Name = ../refined-set-2016/4gu6/4gu6_pocket.pdb
REMARK  208 active torsions:
REMARK  status: ('A' for Active; 'I' for Inactive)
REMARK    1  A    between atoms: _1  and  _3
REMARK    2  A    between atoms: _3  and  _4
REMARK    3  A    between atoms: _3  and  _6
REMARK    4  A    between atoms: _8  and  _10
REMARK    5  A    between atoms: _10  and  _11
REMARK    6  A    between atoms: _10  and  _13
REMARK    7  A    between atoms: _13  and  _14
REMARK    8  A    between atoms: _17  and  _19
REMARK    9  A    between atoms: _19  and  _20
REMARK   10  A    between atoms: _22  and  _24
REMARK   11  A    between atoms: _24  and  _25
REMARK   12  A    between atoms: _24  and  _27
REMARK   13  A    between atoms: _27  and  _28
REMARK   14  A    between atoms: _28  and  _29
REMARK   15  A    between atoms: _32  and  _34
REMARK   16  A    between atoms: _34  and  _35
REMARK   17  A    between atoms: _37  and  _39
REMARK   18  A    between atoms: _39  and  _40
REMARK   19  A    between atoms: _39  and  _42
REMARK   20  A    between atoms: _42  and  _43
REMARK   21  A    between atoms: _43  and  _44
REMARK   22  A    between atoms: _49  and  _51
REMARK   23  A    between atoms: _51  and  _52
REMARK   24  A    between atoms: _54  and  _56
REMARK   25  A    between atoms: _56  and  _57
REMARK   26  A    between atoms: _56  and  _59
REMARK   27  A    between atoms: _59  and  _60
REMARK   28  A    between atoms: _63  and  _65
REMARK   29  A    between atoms: _65  and  _66
REMARK   30  A    between atoms: _65  and  _68
REMARK   31  A    between atoms: _71  and  _73
REMARK   32  A    between atoms: _73  and  _74
REMARK   33  A    between atoms: _73  and  _76
REMARK   34  A    between atoms: _76  and  _77
REMARK   35  A    between atoms: _82  and  _84
REMARK   36  A    between atoms: _84  and  _85
REMARK   37  A    between atoms: _84  and  _87
REMARK   38  A    between atoms: _87  and  _88
REMARK   39  A    between atoms: _88  and  _89
REMARK   40  A    between atoms: _94  and  _96
REMARK   41  A    between atoms: _96  and  _97
REMARK   42  A    between atoms: _100  and  _102
REMARK   43  A    between atoms: _102  and  _103
REMARK   44  A    between atoms: _102  and  _105
REMARK   45  A    between atoms: _108  and  _110
REMARK   46  A    between atoms: _110  and  _111
REMARK   47  A    between atoms: _114  and  _116
REMARK   48  A    between atoms: _116  and  _117
REMARK   49  A    between atoms: _116  and  _119
REMARK   50  A    between atoms: _119  and  _120
REMARK   51  A    between atoms: _123  and  _125
REMARK   52  A    between atoms: _125  and  _126
REMARK   53  A    between atoms: _125  and  _128
REMARK   54  A    between atoms: _128  and  _129
REMARK   55  A    between atoms: _129  and  _130
REMARK   56  A    between atoms: _130  and  _131
REMARK   57  A    between atoms: _131  and  _132
REMARK   58  A    between atoms: _136  and  _138
REMARK   59  A    between atoms: _138  and  _139
REMARK   60  A    between atoms: _138  and  _141
REMARK   61  A    between atoms: _141  and  _142
REMARK   62  A    between atoms: _142  and  _143
REMARK   63  A    between atoms: _145  and  _147
REMARK   64  A    between atoms: _147  and  _148
REMARK   65  A    between atoms: _147  and  _150
REMARK   66  A    between atoms: _153  and  _155
REMARK   67  A    between atoms: _155  and  _156
REMARK   68  A    between atoms: _155  and  _158
REMARK   69  A    between atoms: _158  and  _159
REMARK   70  A    between atoms: _159  and  _160
REMARK   71  A    between atoms: _160  and  _161
REMARK   72  A    between atoms: _161  and  _162
REMARK   73  A    between atoms: _166  and  _168
REMARK   74  A    between atoms: _168  and  _169
REMARK   75  A    between atoms: _168  and  _171
REMARK   76  A    between atoms: _171  and  _172
REMARK   77  A    between atoms: _175  and  _177
REMARK   78  A    between atoms: _177  and  _178
REMARK   79  A    between atoms: _177  and  _180
REMARK   80  A    between atoms: _180  and  _181
REMARK   81  A    between atoms: _184  and  _186
REMARK   82  A    between atoms: _186  and  _187
REMARK   83  A    between atoms: _186  and  _189
REMARK   84  A    between atoms: _189  and  _190
REMARK   85  A    between atoms: _190  and  _191
REMARK   86  A    between atoms: _193  and  _195
REMARK   87  A    between atoms: _195  and  _196
REMARK   88  A    between atoms: _195  and  _198
REMARK   89  A    between atoms: _199  and  _200
REMARK   90  A    between atoms: _203  and  _205
REMARK   91  A    between atoms: _205  and  _206
REMARK   92  A    between atoms: _205  and  _208
REMARK   93  A    between atoms: _208  and  _209
REMARK   94  A    between atoms: _212  and  _214
REMARK   95  A    between atoms: _214  and  _215
REMARK   96  A    between atoms: _214  and  _217
REMARK   97  A    between atoms: _219  and  _221
REMARK   98  A    between atoms: _221  and  _222
REMARK   99  A    between atoms: _221  and  _224
REMARK  100  A    between atoms: _224  and  _225
REMARK  101  A    between atoms: _228  and  _230
REMARK  102  A    between atoms: _230  and  _231
REMARK  103  A    between atoms: _230  and  _233
REMARK  104  A    between atoms: _233  and  _234
REMARK  105  A    between atoms: _237  and  _239
REMARK  106  A    between atoms: _239  and  _240
REMARK  107  A    between atoms: _242  and  _244
REMARK  108  A    between atoms: _244  and  _245
REMARK  109  A    between atoms: _244  and  _247
REMARK  110  A    between atoms: _247  and  _248
REMARK  111  A    between atoms: _248  and  _249
REMARK  112  A    between atoms: _252  and  _254
REMARK  113  A    between atoms: _254  and  _255
REMARK  114  A    between atoms: _254  and  _257
REMARK  115  A    between atoms: _257  and  _258
REMARK  116  A    between atoms: _261  and  _263
REMARK  117  A    between atoms: _263  and  _264
REMARK  118  A    between atoms: _263  and  _266
REMARK  119  A    between atoms: _266  and  _267
REMARK  120  A    between atoms: _267  and  _268
REMARK  121  A    between atoms: _268  and  _269
REMARK  122  A    between atoms: _278  and  _280
REMARK  123  A    between atoms: _280  and  _281
REMARK  124  A    between atoms: _280  and  _283
REMARK  125  A    between atoms: _283  and  _284
REMARK  126  A    between atoms: _286  and  _288
REMARK  127  A    between atoms: _288  and  _289
REMARK  128  A    between atoms: _288  and  _291
REMARK  129  A    between atoms: _291  and  _292
REMARK  130  A    between atoms: _297  and  _299
REMARK  131  A    between atoms: _299  and  _300
REMARK  132  A    between atoms: _299  and  _302
REMARK  133  A    between atoms: _302  and  _303
REMARK  134  A    between atoms: _306  and  _308
REMARK  135  A    between atoms: _308  and  _309
REMARK  136  A    between atoms: _312  and  _314
REMARK  137  A    between atoms: _314  and  _315
REMARK  138  A    between atoms: _318  and  _320
REMARK  139  A    between atoms: _320  and  _321
REMARK  140  A    between atoms: _320  and  _323
REMARK  141  A    between atoms: _323  and  _324
REMARK  142  A    between atoms: _324  and  _325
REMARK  143  A    between atoms: _325  and  _326
REMARK  144  A    between atoms: _335  and  _337
REMARK  145  A    between atoms: _337  and  _338
REMARK  146  A    between atoms: _337  and  _340
REMARK  147  A    between atoms: _340  and  _341
REMARK  148  A    between atoms: _346  and  _348
REMARK  149  A    between atoms: _348  and  _349
REMARK  150  A    between atoms: _348  and  _351
REMARK  151  A    between atoms: _354  and  _356
REMARK  152  A    between atoms: _356  and  _357
REMARK  153  A    between atoms: _356  and  _359
REMARK  154  A    between atoms: _359  and  _360
REMARK  155  A    between atoms: _363  and  _365
REMARK  156  A    between atoms: _365  and  _366
REMARK  157  A    between atoms: _365  and  _368
REMARK  158  A    between atoms: _371  and  _373
REMARK  159  A    between atoms: _373  and  _374
REMARK  160  A    between atoms: _373  and  _376
REMARK  161  A    between atoms: _376  and  _377
REMARK  162  A    between atoms: _379  and  _381
REMARK  163  A    between atoms: _381  and  _382
REMARK  164  A    between atoms: _381  and  _384
REMARK  165  A    between atoms: _384  and  _385
REMARK  166  A    between atoms: _385  and  _386
REMARK  167  A    between atoms: _386  and  _387
REMARK  168  A    between atoms: _387  and  _388
REMARK  169  A    between atoms: _392  and  _394
REMARK  170  A    between atoms: _394  and  _395
REMARK  171  A    between atoms: _394  and  _397
REMARK  172  A    between atoms: _397  and  _398
REMARK  173  A    between atoms: _401  and  _403
REMARK  174  A    between atoms: _403  and  _404
REMARK  175  A    between atoms: _406  and  _408
REMARK  176  A    between atoms: _408  and  _409
REMARK  177  A    between atoms: _408  and  _411
REMARK  178  A    between atoms: _411  and  _412
REMARK  179  A    between atoms: _415  and  _417
REMARK  180  A    between atoms: _417  and  _418
REMARK  181  A    between atoms: _417  and  _420
REMARK  182  A    between atoms: _420  and  _421
REMARK  183  A    between atoms: _427  and  _429
REMARK  184  A    between atoms: _429  and  _430
REMARK  185  A    between atoms: _432  and  _434
REMARK  186  A    between atoms: _434  and  _435
REMARK  187  A    between atoms: _434  and  _437
REMARK  188  A    between atoms: _437  and  _438
REMARK  189  A    between atoms: _441  and  _443
REMARK  190  A    between atoms: _443  and  _444
REMARK  191  A    between atoms: _443  and  _446
REMARK  192  A    between atoms: _446  and  _447
REMARK  193  A    between atoms: _449  and  _451
REMARK  194  A    between atoms: _451  and  _452
REMARK  195  A    between atoms: _451  and  _454
REMARK  196  A    between atoms: _454  and  _455
REMARK  197  A    between atoms: _455  and  _456
REMARK  198  A    between atoms: _456  and  _457
REMARK  199  A    between atoms: _466  and  _468
REMARK  200  A    between atoms: _468  and  _469
REMARK  201  A    between atoms: _468  and  _471
REMARK  202  A    between atoms: _471  and  _472
REMARK  203  A    between atoms: _477  and  _478
REMARK  204  A    between atoms: _480  and  _482
REMARK  205  A    between atoms: _482  and  _483
REMARK  206  A    between atoms: _482  and  _485
REMARK  207  A    between atoms: _485  and  _486
REMARK  208  A    between atoms: _486  and  _487
REMARK                            x       y       z     vdW  Elec       q    Type
REMARK                         _______ _______ _______ _____ _____    ______ ____
ROOT
ATOM      1  O   HOH     1      24.107  -9.994 -47.724  0.00  0.00    +0.000 OA
ENDROOT
TORSDOF 0
REMARK  Name = ../refined-set-2016/4gu6/4gu6_pocket.pdb
REMARK  208 active torsions:
REMARK  status: ('A' for Active; 'I' for Inactive)
REMARK    1  A    between atoms: _1  and  _3
REMARK    2  A    between atoms: _3  and  _4
REMARK    3  A    between atoms: _3  and  _6
REMARK    4  A    between atoms: _8  and  _10
REMARK    5  A    between atoms: _10  and  _11
REMARK    6  A    between atoms: _10  and  _13
REMARK    7  A    between atoms: _13  and  _14
REMARK    8  A    between atoms: _17  and  _19
REMARK    9  A    between atoms: _19  and  _20
REMARK   10  A    between atoms: _22  and  _24
REMARK   11  A    between atoms: _24  and  _25
REMARK   12  A    between atoms: _24  and  _27
REMARK   13  A    between atoms: _27  and  _28
REMARK   14  A    between atoms: _28  and  _29
REMARK   15  A    between atoms: _32  and  _34
REMARK   16  A    between atoms: _34  and  _35
REMARK   17  A    between atoms: _37  and  _39
REMARK   18  A    between atoms: _39  and  _40
REMARK   19  A    between atoms: _39  and  _42
REMARK   20  A    between atoms: _42  and  _43
REMARK   21  A    between atoms: _43  and  _44
REMARK   22  A    between atoms: _49  and  _51
REMARK   23  A    between atoms: _51  and  _52
REMARK   24  A    between atoms: _54  and  _56
REMARK   25  A    between atoms: _56  and  _57
REMARK   26  A    between atoms: _56  and  _59
REMARK   27  A    between atoms: _59  and  _60
REMARK   28  A    between atoms: _63  and  _65
REMARK   29  A    between atoms: _65  and  _66
REMARK   30  A    between atoms: _65  and  _68
REMARK   31  A    between atoms: _71  and  _73
REMARK   32  A    between atoms: _73  and  _74
REMARK   33  A    between atoms: _73  and  _76
REMARK   34  A    between atoms: _76  and  _77
REMARK   35  A    between atoms: _82  and  _84
REMARK   36  A    between atoms: _84  and  _85
REMARK   37  A    between atoms: _84  and  _87
REMARK   38  A    between atoms: _87  and  _88
REMARK   39  A    between atoms: _88  and  _89
REMARK   40  A    between atoms: _94  and  _96
REMARK   41  A    between atoms: _96  and  _97
REMARK   42  A    between atoms: _100  and  _102
REMARK   43  A    between atoms: _102  and  _103
REMARK   44  A    between atoms: _102  and  _105
REMARK   45  A    between atoms: _108  and  _110
REMARK   46  A    between atoms: _110  and  _111
REMARK   47  A    between atoms: _114  and  _116
REMARK   48  A    between atoms: _116  and  _117
REMARK   49  A    between atoms: _116  and  _119
REMARK   50  A    between atoms: _119  and  _120
REMARK   51  A    between atoms: _123  and  _125
REMARK   52  A    between atoms: _125  and  _126
REMARK   53  A    between atoms: _125  and  _128
REMARK   54  A    between atoms: _128  and  _129
REMARK   55  A    between atoms: _129  and  _130
REMARK   56  A    between atoms: _130  and  _131
REMARK   57  A    between atoms: _131  and  _132
REMARK   58  A    between atoms: _136  and  _138
REMARK   59  A    between atoms: _138  and  _139
REMARK   60  A    between atoms: _138  and  _141
REMARK   61  A    between atoms: _141  and  _142
REMARK   62  A    between atoms: _142  and  _143
REMARK   63  A    between atoms: _145  and  _147
REMARK   64  A    between atoms: _147  and  _148
REMARK   65  A    between atoms: _147  and  _150
REMARK   66  A    between atoms: _153  and  _155
REMARK   67  A    between atoms: _155  and  _156
REMARK   68  A    between atoms: _155  and  _158
REMARK   69  A    between atoms: _158  and  _159
REMARK   70  A    between atoms: _159  and  _160
REMARK   71  A    between atoms: _160  and  _161
REMARK   72  A    between atoms: _161  and  _162
REMARK   73  A    between atoms: _166  and  _168
REMARK   74  A    between atoms: _168  and  _169
REMARK   75  A    between atoms: _168  and  _171
REMARK   76  A    between atoms: _171  and  _172
REMARK   77  A    between atoms: _175  and  _177
REMARK   78  A    between atoms: _177  and  _178
REMARK   79  A    between atoms: _177  and  _180
REMARK   80  A    between atoms: _180  and  _181
REMARK   81  A    between atoms: _184  and  _186
REMARK   82  A    between atoms: _186  and  _187
REMARK   83  A    between atoms: _186  and  _189
REMARK   84  A    between atoms: _189  and  _190
REMARK   85  A    between atoms: _190  and  _191
REMARK   86  A    between atoms: _193  and  _195
REMARK   87  A    between atoms: _195  and  _196
REMARK   88  A    between atoms: _195  and  _198
REMARK   89  A    between atoms: _199  and  _200
REMARK   90  A    between atoms: _203  and  _205
REMARK   91  A    between atoms: _205  and  _206
REMARK   92  A    between atoms: _205  and  _208
REMARK   93  A    between atoms: _208  and  _209
REMARK   94  A    between atoms: _212  and  _214
REMARK   95  A    between atoms: _214  and  _215
REMARK   96  A    between atoms: _214  and  _217
REMARK   97  A    between atoms: _219  and  _221
REMARK   98  A    between atoms: _221  and  _222
REMARK   99  A    between atoms: _221  and  _224
REMARK  100  A    between atoms: _224  and  _225
REMARK  101  A    between atoms: _228  and  _230
REMARK  102  A    between atoms: _230  and  _231
REMARK  103  A    between atoms: _230  and  _233
REMARK  104  A    between atoms: _233  and  _234
REMARK  105  A    between atoms: _237  and  _239
REMARK  106  A    between atoms: _239  and  _240
REMARK  107  A    between atoms: _242  and  _244
REMARK  108  A    between atoms: _244  and  _245
REMARK  109  A    between atoms: _244  and  _247
REMARK  110  A    between atoms: _247  and  _248
REMARK  111  A    between atoms: _248  and  _249
REMARK  112  A    between atoms: _252  and  _254
REMARK  113  A    between atoms: _254  and  _255
REMARK  114  A    between atoms: _254  and  _257
REMARK  115  A    between atoms: _257  and  _258
REMARK  116  A    between atoms: _261  and  _263
REMARK  117  A    between atoms: _263  and  _264
REMARK  118  A    between atoms: _263  and  _266
REMARK  119  A    between atoms: _266  and  _267
REMARK  120  A    between atoms: _267  and  _268
REMARK  121  A    between atoms: _268  and  _269
REMARK  122  A    between atoms: _278  and  _280
REMARK  123  A    between atoms: _280  and  _281
REMARK  124  A    between atoms: _280  and  _283
REMARK  125  A    between atoms: _283  and  _284
REMARK  126  A    between atoms: _286  and  _288
REMARK  127  A    between atoms: _288  and  _289
REMARK  128  A    between atoms: _288  and  _291
REMARK  129  A    between atoms: _291  and  _292
REMARK  130  A    between atoms: _297  and  _299
REMARK  131  A    between atoms: _299  and  _300
REMARK  132  A    between atoms: _299  and  _302
REMARK  133  A    between atoms: _302  and  _303
REMARK  134  A    between atoms: _306  and  _308
REMARK  135  A    between atoms: _308  and  _309
REMARK  136  A    between atoms: _312  and  _314
REMARK  137  A    between atoms: _314  and  _315
REMARK  138  A    between atoms: _318  and  _320
REMARK  139  A    between atoms: _320  and  _321
REMARK  140  A    between atoms: _320  and  _323
REMARK  141  A    between atoms: _323  and  _324
REMARK  142  A    between atoms: _324  and  _325
REMARK  143  A    between atoms: _325  and  _326
REMARK  144  A    between atoms: _335  and  _337
REMARK  145  A    between atoms: _337  and  _338
REMARK  146  A    between atoms: _337  and  _340
REMARK  147  A    between atoms: _340  and  _341
REMARK  148  A    between atoms: _346  and  _348
REMARK  149  A    between atoms: _348  and  _349
REMARK  150  A    between atoms: _348  and  _351
REMARK  151  A    between atoms: _354  and  _356
REMARK  152  A    between atoms: _356  and  _357
REMARK  153  A    between atoms: _356  and  _359
REMARK  154  A    between atoms: _359  and  _360
REMARK  155  A    between atoms: _363  and  _365
REMARK  156  A    between atoms: _365  and  _366
REMARK  157  A    between atoms: _365  and  _368
REMARK  158  A    between atoms: _371  and  _373
REMARK  159  A    between atoms: _373  and  _374
REMARK  160  A    between atoms: _373  and  _376
REMARK  161  A    between atoms: _376  and  _377
REMARK  162  A    between atoms: _379  and  _381
REMARK  163  A    between atoms: _381  and  _382
REMARK  164  A    between atoms: _381  and  _384
REMARK  165  A    between atoms: _384  and  _385
REMARK  166  A    between atoms: _385  and  _386
REMARK  167  A    between atoms: _386  and  _387
REMARK  168  A    between atoms: _387  and  _388
REMARK  169  A    between atoms: _392  and  _394
REMARK  170  A    between atoms: _394  and  _395
REMARK  171  A    between atoms: _394  and  _397
REMARK  172  A    between atoms: _397  and  _398
REMARK  173  A    between atoms: _401  and  _403
REMARK  174  A    between atoms: _403  and  _404
REMARK  175  A    between atoms: _406  and  _408
REMARK  176  A    between atoms: _408  and  _409
REMARK  177  A    between atoms: _408  and  _411
REMARK  178  A    between atoms: _411  and  _412
REMARK  179  A    between atoms: _415  and  _417
REMARK  180  A    between atoms: _417  and  _418
REMARK  181  A    between atoms: _417  and  _420
REMARK  182  A    between atoms: _420  and  _421
REMARK  183  A    between atoms: _427  and  _429
REMARK  184  A    between atoms: _429  and  _430
REMARK  185  A    between atoms: _432  and  _434
REMARK  186  A    between atoms: _434  and  _435
REMARK  187  A    between atoms: _434  and  _437
REMARK  188  A    between atoms: _437  and  _438
REMARK  189  A    between atoms: _441  and  _443
REMARK  190  A    between atoms: _443  and  _444
REMARK  191  A    between atoms: _443  and  _446
REMARK  192  A    between atoms: _446  and  _447
REMARK  193  A    between atoms: _449  and  _451
REMARK  194  A    between atoms: _451  and  _452
REMARK  195  A    between atoms: _451  and  _454
REMARK  196  A    between atoms: _454  and  _455
REMARK  197  A    between atoms: _455  and  _456
REMARK  198  A    between atoms: _456  and  _457
REMARK  199  A    between atoms: _466  and  _468
REMARK  200  A    between atoms: _468  and  _469
REMARK  201  A    between atoms: _468  and  _471
REMARK  202  A    between atoms: _471  and  _472
REMARK  203  A    between atoms: _477  and  _478
REMARK  204  A    between atoms: _480  and  _482
REMARK  205  A    between atoms: _482  and  _483
REMARK  206  A    between atoms: _482  and  _485
REMARK  207  A    between atoms: _485  and  _486
REMARK  208  A    between atoms: _486  and  _487
REMARK                            x       y       z     vdW  Elec       q    Type
REMARK                         _______ _______ _______ _____ _____    ______ ____
ROOT
ATOM      1  O   HOH     1      18.308  -6.330 -49.348  0.00  0.00    +0.000 OA
ENDROOT
TORSDOF 0
REMARK  Name = ../refined-set-2016/4gu6/4gu6_pocket.pdb
REMARK  208 active torsions:
REMARK  status: ('A' for Active; 'I' for Inactive)
REMARK    1  A    between atoms: _1  and  _3
REMARK    2  A    between atoms: _3  and  _4
REMARK    3  A    between atoms: _3  and  _6
REMARK    4  A    between atoms: _8  and  _10
REMARK    5  A    between atoms: _10  and  _11
REMARK    6  A    between atoms: _10  and  _13
REMARK    7  A    between atoms: _13  and  _14
REMARK    8  A    between atoms: _17  and  _19
REMARK    9  A    between atoms: _19  and  _20
REMARK   10  A    between atoms: _22  and  _24
REMARK   11  A    between atoms: _24  and  _25
REMARK   12  A    between atoms: _24  and  _27
REMARK   13  A    between atoms: _27  and  _28
REMARK   14  A    between atoms: _28  and  _29
REMARK   15  A    between atoms: _32  and  _34
REMARK   16  A    between atoms: _34  and  _35
REMARK   17  A    between atoms: _37  and  _39
REMARK   18  A    between atoms: _39  and  _40
REMARK   19  A    between atoms: _39  and  _42
REMARK   20  A    between atoms: _42  and  _43
REMARK   21  A    between atoms: _43  and  _44
REMARK   22  A    between atoms: _49  and  _51
REMARK   23  A    between atoms: _51  and  _52
REMARK   24  A    between atoms: _54  and  _56
REMARK   25  A    between atoms: _56  and  _57
REMARK   26  A    between atoms: _56  and  _59
REMARK   27  A    between atoms: _59  and  _60
REMARK   28  A    between atoms: _63  and  _65
REMARK   29  A    between atoms: _65  and  _66
REMARK   30  A    between atoms: _65  and  _68
REMARK   31  A    between atoms: _71  and  _73
REMARK   32  A    between atoms: _73  and  _74
REMARK   33  A    between atoms: _73  and  _76
REMARK   34  A    between atoms: _76  and  _77
REMARK   35  A    between atoms: _82  and  _84
REMARK   36  A    between atoms: _84  and  _85
REMARK   37  A    between atoms: _84  and  _87
REMARK   38  A    between atoms: _87  and  _88
REMARK   39  A    between atoms: _88  and  _89
REMARK   40  A    between atoms: _94  and  _96
REMARK   41  A    between atoms: _96  and  _97
REMARK   42  A    between atoms: _100  and  _102
REMARK   43  A    between atoms: _102  and  _103
REMARK   44  A    between atoms: _102  and  _105
REMARK   45  A    between atoms: _108  and  _110
REMARK   46  A    between atoms: _110  and  _111
REMARK   47  A    between atoms: _114  and  _116
REMARK   48  A    between atoms: _116  and  _117
REMARK   49  A    between atoms: _116  and  _119
REMARK   50  A    between atoms: _119  and  _120
REMARK   51  A    between atoms: _123  and  _125
REMARK   52  A    between atoms: _125  and  _126
REMARK   53  A    between atoms: _125  and  _128
REMARK   54  A    between atoms: _128  and  _129
REMARK   55  A    between atoms: _129  and  _130
REMARK   56  A    between atoms: _130  and  _131
REMARK   57  A    between atoms: _131  and  _132
REMARK   58  A    between atoms: _136  and  _138
REMARK   59  A    between atoms: _138  and  _139
REMARK   60  A    between atoms: _138  and  _141
REMARK   61  A    between atoms: _141  and  _142
REMARK   62  A    between atoms: _142  and  _143
REMARK   63  A    between atoms: _145  and  _147
REMARK   64  A    between atoms: _147  and  _148
REMARK   65  A    between atoms: _147  and  _150
REMARK   66  A    between atoms: _153  and  _155
REMARK   67  A    between atoms: _155  and  _156
REMARK   68  A    between atoms: _155  and  _158
REMARK   69  A    between atoms: _158  and  _159
REMARK   70  A    between atoms: _159  and  _160
REMARK   71  A    between atoms: _160  and  _161
REMARK   72  A    between atoms: _161  and  _162
REMARK   73  A    between atoms: _166  and  _168
REMARK   74  A    between atoms: _168  and  _169
REMARK   75  A    between atoms: _168  and  _171
REMARK   76  A    between atoms: _171  and  _172
REMARK   77  A    between atoms: _175  and  _177
REMARK   78  A    between atoms: _177  and  _178
REMARK   79  A    between atoms: _177  and  _180
REMARK   80  A    between atoms: _180  and  _181
REMARK   81  A    between atoms: _184  and  _186
REMARK   82  A    between atoms: _186  and  _187
REMARK   83  A    between atoms: _186  and  _189
REMARK   84  A    between atoms: _189  and  _190
REMARK   85  A    between atoms: _190  and  _191
REMARK   86  A    between atoms: _193  and  _195
REMARK   87  A    between atoms: _195  and  _196
REMARK   88  A    between atoms: _195  and  _198
REMARK   89  A    between atoms: _199  and  _200
REMARK   90  A    between atoms: _203  and  _205
REMARK   91  A    between atoms: _205  and  _206
REMARK   92  A    between atoms: _205  and  _208
REMARK   93  A    between atoms: _208  and  _209
REMARK   94  A    between atoms: _212  and  _214
REMARK   95  A    between atoms: _214  and  _215
REMARK   96  A    between atoms: _214  and  _217
REMARK   97  A    between atoms: _219  and  _221
REMARK   98  A    between atoms: _221  and  _222
REMARK   99  A    between atoms: _221  and  _224
REMARK  100  A    between atoms: _224  and  _225
REMARK  101  A    between atoms: _228  and  _230
REMARK  102  A    between atoms: _230  and  _231
REMARK  103  A    between atoms: _230  and  _233
REMARK  104  A    between atoms: _233  and  _234
REMARK  105  A    between atoms: _237  and  _239
REMARK  106  A    between atoms: _239  and  _240
REMARK  107  A    between atoms: _242  and  _244
REMARK  108  A    between atoms: _244  and  _245
REMARK  109  A    between atoms: _244  and  _247
REMARK  110  A    between atoms: _247  and  _248
REMARK  111  A    between atoms: _248  and  _249
REMARK  112  A    between atoms: _252  and  _254
REMARK  113  A    between atoms: _254  and  _255
REMARK  114  A    between atoms: _254  and  _257
REMARK  115  A    between atoms: _257  and  _258
REMARK  116  A    between atoms: _261  and  _263
REMARK  117  A    between atoms: _263  and  _264
REMARK  118  A    between atoms: _263  and  _266
REMARK  119  A    between atoms: _266  and  _267
REMARK  120  A    between atoms: _267  and  _268
REMARK  121  A    between atoms: _268  and  _269
REMARK  122  A    between atoms: _278  and  _280
REMARK  123  A    between atoms: _280  and  _281
REMARK  124  A    between atoms: _280  and  _283
REMARK  125  A    between atoms: _283  and  _284
REMARK  126  A    between atoms: _286  and  _288
REMARK  127  A    between atoms: _288  and  _289
REMARK  128  A    between atoms: _288  and  _291
REMARK  129  A    between atoms: _291  and  _292
REMARK  130  A    between atoms: _297  and  _299
REMARK  131  A    between atoms: _299  and  _300
REMARK  132  A    between atoms: _299  and  _302
REMARK  133  A    between atoms: _302  and  _303
REMARK  134  A    between atoms: _306  and  _308
REMARK  135  A    between atoms: _308  and  _309
REMARK  136  A    between atoms: _312  and  _314
REMARK  137  A    between atoms: _314  and  _315
REMARK  138  A    between atoms: _318  and  _320
REMARK  139  A    between atoms: _320  and  _321
REMARK  140  A    between atoms: _320  and  _323
REMARK  141  A    between atoms: _323  and  _324
REMARK  142  A    between atoms: _324  and  _325
REMARK  143  A    between atoms: _325  and  _326
REMARK  144  A    between atoms: _335  and  _337
REMARK  145  A    between atoms: _337  and  _338
REMARK  146  A    between atoms: _337  and  _340
REMARK  147  A    between atoms: _340  and  _341
REMARK  148  A    between atoms: _346  and  _348
REMARK  149  A    between atoms: _348  and  _349
REMARK  150  A    between atoms: _348  and  _351
REMARK  151  A    between atoms: _354  and  _356
REMARK  152  A    between atoms: _356  and  _357
REMARK  153  A    between atoms: _356  and  _359
REMARK  154  A    between atoms: _359  and  _360
REMARK  155  A    between atoms: _363  and  _365
REMARK  156  A    between atoms: _365  and  _366
REMARK  157  A    between atoms: _365  and  _368
REMARK  158  A    between atoms: _371  and  _373
REMARK  159  A    between atoms: _373  and  _374
REMARK  160  A    between atoms: _373  and  _376
REMARK  161  A    between atoms: _376  and  _377
REMARK  162  A    between atoms: _379  and  _381
REMARK  163  A    between atoms: _381  and  _382
REMARK  164  A    between atoms: _381  and  _384
REMARK  165  A    between atoms: _384  and  _385
REMARK  166  A    between atoms: _385  and  _386
REMARK  167  A    between atoms: _386  and  _387
REMARK  168  A    between atoms: _387  and  _388
REMARK  169  A    between atoms: _392  and  _394
REMARK  170  A    between atoms: _394  and  _395
REMARK  171  A    between atoms: _394  and  _397
REMARK  172  A    between atoms: _397  and  _398
REMARK  173  A    between atoms: _401  and  _403
REMARK  174  A    between atoms: _403  and  _404
REMARK  175  A    between atoms: _406  and  _408
REMARK  176  A    between atoms: _408  and  _409
REMARK  177  A    between atoms: _408  and  _411
REMARK  178  A    between atoms: _411  and  _412
REMARK  179  A    between atoms: _415  and  _417
REMARK  180  A    between atoms: _417  and  _418
REMARK  181  A    between atoms: _417  and  _420
REMARK  182  A    between atoms: _420  and  _421
REMARK  183  A    between atoms: _427  and  _429
REMARK  184  A    between atoms: _429  and  _430
REMARK  185  A    between atoms: _432  and  _434
REMARK  186  A    between atoms: _434  and  _435
REMARK  187  A    between atoms: _434  and  _437
REMARK  188  A    between atoms: _437  and  _438
REMARK  189  A    between atoms: _441  and  _443
REMARK  190  A    between atoms: _443  and  _444
REMARK  191  A    between atoms: _443  and  _446
REMARK  192  A    between atoms: _446  and  _447
REMARK  193  A    between atoms: _449  and  _451
REMARK  194  A    between atoms: _451  and  _452
REMARK  195  A    between atoms: _451  and  _454
REMARK  196  A    between atoms: _454  and  _455
REMARK  197  A    between atoms: _455  and  _456
REMARK  198  A    between atoms: _456  and  _457
REMARK  199  A    between atoms: _466  and  _468
REMARK  200  A    between atoms: _468  and  _469
REMARK  201  A    between atoms: _468  and  _471
REMARK  202  A    between atoms: _471  and  _472
REMARK  203  A    between atoms: _477  and  _478
REMARK  204  A    between atoms: _480  and  _482
REMARK  205  A    between atoms: _482  and  _483
REMARK  206  A    between atoms: _482  and  _485
REMARK  207  A    between atoms: _485  and  _486
REMARK  208  A    between atoms: _486  and  _487
REMARK                            x       y       z     vdW  Elec       q    Type
REMARK                         _______ _______ _______ _____ _____    ______ ____
ROOT
ATOM      1  O   HOH     1      25.965  -8.402 -33.253  0.00  0.00    +0.000 OA
ENDROOT
TORSDOF 0
REMARK  Name = ../refined-set-2016/4gu6/4gu6_pocket.pdb
REMARK  208 active torsions:
REMARK  status: ('A' for Active; 'I' for Inactive)
REMARK    1  A    between atoms: _1  and  _3
REMARK    2  A    between atoms: _3  and  _4
REMARK    3  A    between atoms: _3  and  _6
REMARK    4  A    between atoms: _8  and  _10
REMARK    5  A    between atoms: _10  and  _11
REMARK    6  A    between atoms: _10  and  _13
REMARK    7  A    between atoms: _13  and  _14
REMARK    8  A    between atoms: _17  and  _19
REMARK    9  A    between atoms: _19  and  _20
REMARK   10  A    between atoms: _22  and  _24
REMARK   11  A    between atoms: _24  and  _25
REMARK   12  A    between atoms: _24  and  _27
REMARK   13  A    between atoms: _27  and  _28
REMARK   14  A    between atoms: _28  and  _29
REMARK   15  A    between atoms: _32  and  _34
REMARK   16  A    between atoms: _34  and  _35
REMARK   17  A    between atoms: _37  and  _39
REMARK   18  A    between atoms: _39  and  _40
REMARK   19  A    between atoms: _39  and  _42
REMARK   20  A    between atoms: _42  and  _43
REMARK   21  A    between atoms: _43  and  _44
REMARK   22  A    between atoms: _49  and  _51
REMARK   23  A    between atoms: _51  and  _52
REMARK   24  A    between atoms: _54  and  _56
REMARK   25  A    between atoms: _56  and  _57
REMARK   26  A    between atoms: _56  and  _59
REMARK   27  A    between atoms: _59  and  _60
REMARK   28  A    between atoms: _63  and  _65
REMARK   29  A    between atoms: _65  and  _66
REMARK   30  A    between atoms: _65  and  _68
REMARK   31  A    between atoms: _71  and  _73
REMARK   32  A    between atoms: _73  and  _74
REMARK   33  A    between atoms: _73  and  _76
REMARK   34  A    between atoms: _76  and  _77
REMARK   35  A    between atoms: _82  and  _84
REMARK   36  A    between atoms: _84  and  _85
REMARK   37  A    between atoms: _84  and  _87
REMARK   38  A    between atoms: _87  and  _88
REMARK   39  A    between atoms: _88  and  _89
REMARK   40  A    between atoms: _94  and  _96
REMARK   41  A    between atoms: _96  and  _97
REMARK   42  A    between atoms: _100  and  _102
REMARK   43  A    between atoms: _102  and  _103
REMARK   44  A    between atoms: _102  and  _105
REMARK   45  A    between atoms: _108  and  _110
REMARK   46  A    between atoms: _110  and  _111
REMARK   47  A    between atoms: _114  and  _116
REMARK   48  A    between atoms: _116  and  _117
REMARK   49  A    between atoms: _116  and  _119
REMARK   50  A    between atoms: _119  and  _120
REMARK   51  A    between atoms: _123  and  _125
REMARK   52  A    between atoms: _125  and  _126
REMARK   53  A    between atoms: _125  and  _128
REMARK   54  A    between atoms: _128  and  _129
REMARK   55  A    between atoms: _129  and  _130
REMARK   56  A    between atoms: _130  and  _131
REMARK   57  A    between atoms: _131  and  _132
REMARK   58  A    between atoms: _136  and  _138
REMARK   59  A    between atoms: _138  and  _139
REMARK   60  A    between atoms: _138  and  _141
REMARK   61  A    between atoms: _141  and  _142
REMARK   62  A    between atoms: _142  and  _143
REMARK   63  A    between atoms: _145  and  _147
REMARK   64  A    between atoms: _147  and  _148
REMARK   65  A    between atoms: _147  and  _150
REMARK   66  A    between atoms: _153  and  _155
REMARK   67  A    between atoms: _155  and  _156
REMARK   68  A    between atoms: _155  and  _158
REMARK   69  A    between atoms: _158  and  _159
REMARK   70  A    between atoms: _159  and  _160
REMARK   71  A    between atoms: _160  and  _161
REMARK   72  A    between atoms: _161  and  _162
REMARK   73  A    between atoms: _166  and  _168
REMARK   74  A    between atoms: _168  and  _169
REMARK   75  A    between atoms: _168  and  _171
REMARK   76  A    between atoms: _171  and  _172
REMARK   77  A    between atoms: _175  and  _177
REMARK   78  A    between atoms: _177  and  _178
REMARK   79  A    between atoms: _177  and  _180
REMARK   80  A    between atoms: _180  and  _181
REMARK   81  A    between atoms: _184  and  _186
REMARK   82  A    between atoms: _186  and  _187
REMARK   83  A    between atoms: _186  and  _189
REMARK   84  A    between atoms: _189  and  _190
REMARK   85  A    between atoms: _190  and  _191
REMARK   86  A    between atoms: _193  and  _195
REMARK   87  A    between atoms: _195  and  _196
REMARK   88  A    between atoms: _195  and  _198
REMARK   89  A    between atoms: _199  and  _200
REMARK   90  A    between atoms: _203  and  _205
REMARK   91  A    between atoms: _205  and  _206
REMARK   92  A    between atoms: _205  and  _208
REMARK   93  A    between atoms: _208  and  _209
REMARK   94  A    between atoms: _212  and  _214
REMARK   95  A    between atoms: _214  and  _215
REMARK   96  A    between atoms: _214  and  _217
REMARK   97  A    between atoms: _219  and  _221
REMARK   98  A    between atoms: _221  and  _222
REMARK   99  A    between atoms: _221  and  _224
REMARK  100  A    between atoms: _224  and  _225
REMARK  101  A    between atoms: _228  and  _230
REMARK  102  A    between atoms: _230  and  _231
REMARK  103  A    between atoms: _230  and  _233
REMARK  104  A    between atoms: _233  and  _234
REMARK  105  A    between atoms: _237  and  _239
REMARK  106  A    between atoms: _239  and  _240
REMARK  107  A    between atoms: _242  and  _244
REMARK  108  A    between atoms: _244  and  _245
REMARK  109  A    between atoms: _244  and  _247
REMARK  110  A    between atoms: _247  and  _248
REMARK  111  A    between atoms: _248  and  _249
REMARK  112  A    between atoms: _252  and  _254
REMARK  113  A    between atoms: _254  and  _255
REMARK  114  A    between atoms: _254  and  _257
REMARK  115  A    between atoms: _257  and  _258
REMARK  116  A    between atoms: _261  and  _263
REMARK  117  A    between atoms: _263  and  _264
REMARK  118  A    between atoms: _263  and  _266
REMARK  119  A    between atoms: _266  and  _267
REMARK  120  A    between atoms: _267  and  _268
REMARK  121  A    between atoms: _268  and  _269
REMARK  122  A    between atoms: _278  and  _280
REMARK  123  A    between atoms: _280  and  _281
REMARK  124  A    between atoms: _280  and  _283
REMARK  125  A    between atoms: _283  and  _284
REMARK  126  A    between atoms: _286  and  _288
REMARK  127  A    between atoms: _288  and  _289
REMARK  128  A    between atoms: _288  and  _291
REMARK  129  A    between atoms: _291  and  _292
REMARK  130  A    between atoms: _297  and  _299
REMARK  131  A    between atoms: _299  and  _300
REMARK  132  A    between atoms: _299  and  _302
REMARK  133  A    between atoms: _302  and  _303
REMARK  134  A    between atoms: _306  and  _308
REMARK  135  A    between atoms: _308  and  _309
REMARK  136  A    between atoms: _312  and  _314
REMARK  137  A    between atoms: _314  and  _315
REMARK  138  A    between atoms: _318  and  _320
REMARK  139  A    between atoms: _320  and  _321
REMARK  140  A    between atoms: _320  and  _323
REMARK  141  A    between atoms: _323  and  _324
REMARK  142  A    between atoms: _324  and  _325
REMARK  143  A    between atoms: _325  and  _326
REMARK  144  A    between atoms: _335  and  _337
REMARK  145  A    between atoms: _337  and  _338
REMARK  146  A    between atoms: _337  and  _340
REMARK  147  A    between atoms: _340  and  _341
REMARK  148  A    between atoms: _346  and  _348
REMARK  149  A    between atoms: _348  and  _349
REMARK  150  A    between atoms: _348  and  _351
REMARK  151  A    between atoms: _354  and  _356
REMARK  152  A    between atoms: _356  and  _357
REMARK  153  A    between atoms: _356  and  _359
REMARK  154  A    between atoms: _359  and  _360
REMARK  155  A    between atoms: _363  and  _365
REMARK  156  A    between atoms: _365  and  _366
REMARK  157  A    between atoms: _365  and  _368
REMARK  158  A    between atoms: _371  and  _373
REMARK  159  A    between atoms: _373  and  _374
REMARK  160  A    between atoms: _373  and  _376
REMARK  161  A    between atoms: _376  and  _377
REMARK  162  A    between atoms: _379  and  _381
REMARK  163  A    between atoms: _381  and  _382
REMARK  164  A    between atoms: _381  and  _384
REMARK  165  A    between atoms: _384  and  _385
REMARK  166  A    between atoms: _385  and  _386
REMARK  167  A    between atoms: _386  and  _387
REMARK  168  A    between atoms: _387  and  _388
REMARK  169  A    between atoms: _392  and  _394
REMARK  170  A    between atoms: _394  and  _395
REMARK  171  A    between atoms: _394  and  _397
REMARK  172  A    between atoms: _397  and  _398
REMARK  173  A    between atoms: _401  and  _403
REMARK  174  A    between atoms: _403  and  _404
REMARK  175  A    between atoms: _406  and  _408
REMARK  176  A    between atoms: _408  and  _409
REMARK  177  A    between atoms: _408  and  _411
REMARK  178  A    between atoms: _411  and  _412
REMARK  179  A    between atoms: _415  and  _417
REMARK  180  A    between atoms: _417  and  _418
REMARK  181  A    between atoms: _417  and  _420
REMARK  182  A    between atoms: _420  and  _421
REMARK  183  A    between atoms: _427  and  _429
REMARK  184  A    between atoms: _429  and  _430
REMARK  185  A    between atoms: _432  and  _434
REMARK  186  A    between atoms: _434  and  _435
REMARK  187  A    between atoms: _434  and  _437
REMARK  188  A    between atoms: _437  and  _438
REMARK  189  A    between atoms: _441  and  _443
REMARK  190  A    between atoms: _443  and  _444
REMARK  191  A    between atoms: _443  and  _446
REMARK  192  A    between atoms: _446  and  _447
REMARK  193  A    between atoms: _449  and  _451
REMARK  194  A    between atoms: _451  and  _452
REMARK  195  A    between atoms: _451  and  _454
REMARK  196  A    between atoms: _454  and  _455
REMARK  197  A    between atoms: _455  and  _456
REMARK  198  A    between atoms: _456  and  _457
REMARK  199  A    between atoms: _466  and  _468
REMARK  200  A    between atoms: _468  and  _469
REMARK  201  A    between atoms: _468  and  _471
REMARK  202  A    between atoms: _471  and  _472
REMARK  203  A    between atoms: _477  and  _478
REMARK  204  A    between atoms: _480  and  _482
REMARK  205  A    between atoms: _482  and  _483
REMARK  206  A    between atoms: _482  and  _485
REMARK  207  A    between atoms: _485  and  _486
REMARK  208  A    between atoms: _486  and  _487
REMARK                            x       y       z     vdW  Elec       q    Type
REMARK                         _______ _______ _______ _____ _____    ______ ____
ROOT
ATOM      1  O   HOH     1      17.555 -15.311 -45.675  0.00  0.00    +0.000 OA
ENDROOT
TORSDOF 0
REMARK  Name = ../refined-set-2016/4gu6/4gu6_pocket.pdb
REMARK  208 active torsions:
REMARK  status: ('A' for Active; 'I' for Inactive)
REMARK    1  A    between atoms: _1  and  _3
REMARK    2  A    between atoms: _3  and  _4
REMARK    3  A    between atoms: _3  and  _6
REMARK    4  A    between atoms: _8  and  _10
REMARK    5  A    between atoms: _10  and  _11
REMARK    6  A    between atoms: _10  and  _13
REMARK    7  A    between atoms: _13  and  _14
REMARK    8  A    between atoms: _17  and  _19
REMARK    9  A    between atoms: _19  and  _20
REMARK   10  A    between atoms: _22  and  _24
REMARK   11  A    between atoms: _24  and  _25
REMARK   12  A    between atoms: _24  and  _27
REMARK   13  A    between atoms: _27  and  _28
REMARK   14  A    between atoms: _28  and  _29
REMARK   15  A    between atoms: _32  and  _34
REMARK   16  A    between atoms: _34  and  _35
REMARK   17  A    between atoms: _37  and  _39
REMARK   18  A    between atoms: _39  and  _40
REMARK   19  A    between atoms: _39  and  _42
REMARK   20  A    between atoms: _42  and  _43
REMARK   21  A    between atoms: _43  and  _44
REMARK   22  A    between atoms: _49  and  _51
REMARK   23  A    between atoms: _51  and  _52
REMARK   24  A    between atoms: _54  and  _56
REMARK   25  A    between atoms: _56  and  _57
REMARK   26  A    between atoms: _56  and  _59
REMARK   27  A    between atoms: _59  and  _60
REMARK   28  A    between atoms: _63  and  _65
REMARK   29  A    between atoms: _65  and  _66
REMARK   30  A    between atoms: _65  and  _68
REMARK   31  A    between atoms: _71  and  _73
REMARK   32  A    between atoms: _73  and  _74
REMARK   33  A    between atoms: _73  and  _76
REMARK   34  A    between atoms: _76  and  _77
REMARK   35  A    between atoms: _82  and  _84
REMARK   36  A    between atoms: _84  and  _85
REMARK   37  A    between atoms: _84  and  _87
REMARK   38  A    between atoms: _87  and  _88
REMARK   39  A    between atoms: _88  and  _89
REMARK   40  A    between atoms: _94  and  _96
REMARK   41  A    between atoms: _96  and  _97
REMARK   42  A    between atoms: _100  and  _102
REMARK   43  A    between atoms: _102  and  _103
REMARK   44  A    between atoms: _102  and  _105
REMARK   45  A    between atoms: _108  and  _110
REMARK   46  A    between atoms: _110  and  _111
REMARK   47  A    between atoms: _114  and  _116
REMARK   48  A    between atoms: _116  and  _117
REMARK   49  A    between atoms: _116  and  _119
REMARK   50  A    between atoms: _119  and  _120
REMARK   51  A    between atoms: _123  and  _125
REMARK   52  A    between atoms: _125  and  _126
REMARK   53  A    between atoms: _125  and  _128
REMARK   54  A    between atoms: _128  and  _129
REMARK   55  A    between atoms: _129  and  _130
REMARK   56  A    between atoms: _130  and  _131
REMARK   57  A    between atoms: _131  and  _132
REMARK   58  A    between atoms: _136  and  _138
REMARK   59  A    between atoms: _138  and  _139
REMARK   60  A    between atoms: _138  and  _141
REMARK   61  A    between atoms: _141  and  _142
REMARK   62  A    between atoms: _142  and  _143
REMARK   63  A    between atoms: _145  and  _147
REMARK   64  A    between atoms: _147  and  _148
REMARK   65  A    between atoms: _147  and  _150
REMARK   66  A    between atoms: _153  and  _155
REMARK   67  A    between atoms: _155  and  _156
REMARK   68  A    between atoms: _155  and  _158
REMARK   69  A    between atoms: _158  and  _159
REMARK   70  A    between atoms: _159  and  _160
REMARK   71  A    between atoms: _160  and  _161
REMARK   72  A    between atoms: _161  and  _162
REMARK   73  A    between atoms: _166  and  _168
REMARK   74  A    between atoms: _168  and  _169
REMARK   75  A    between atoms: _168  and  _171
REMARK   76  A    between atoms: _171  and  _172
REMARK   77  A    between atoms: _175  and  _177
REMARK   78  A    between atoms: _177  and  _178
REMARK   79  A    between atoms: _177  and  _180
REMARK   80  A    between atoms: _180  and  _181
REMARK   81  A    between atoms: _184  and  _186
REMARK   82  A    between atoms: _186  and  _187
REMARK   83  A    between atoms: _186  and  _189
REMARK   84  A    between atoms: _189  and  _190
REMARK   85  A    between atoms: _190  and  _191
REMARK   86  A    between atoms: _193  and  _195
REMARK   87  A    between atoms: _195  and  _196
REMARK   88  A    between atoms: _195  and  _198
REMARK   89  A    between atoms: _199  and  _200
REMARK   90  A    between atoms: _203  and  _205
REMARK   91  A    between atoms: _205  and  _206
REMARK   92  A    between atoms: _205  and  _208
REMARK   93  A    between atoms: _208  and  _209
REMARK   94  A    between atoms: _212  and  _214
REMARK   95  A    between atoms: _214  and  _215
REMARK   96  A    between atoms: _214  and  _217
REMARK   97  A    between atoms: _219  and  _221
REMARK   98  A    between atoms: _221  and  _222
REMARK   99  A    between atoms: _221  and  _224
REMARK  100  A    between atoms: _224  and  _225
REMARK  101  A    between atoms: _228  and  _230
REMARK  102  A    between atoms: _230  and  _231
REMARK  103  A    between atoms: _230  and  _233
REMARK  104  A    between atoms: _233  and  _234
REMARK  105  A    between atoms: _237  and  _239
REMARK  106  A    between atoms: _239  and  _240
REMARK  107  A    between atoms: _242  and  _244
REMARK  108  A    between atoms: _244  and  _245
REMARK  109  A    between atoms: _244  and  _247
REMARK  110  A    between atoms: _247  and  _248
REMARK  111  A    between atoms: _248  and  _249
REMARK  112  A    between atoms: _252  and  _254
REMARK  113  A    between atoms: _254  and  _255
REMARK  114  A    between atoms: _254  and  _257
REMARK  115  A    between atoms: _257  and  _258
REMARK  116  A    between atoms: _261  and  _263
REMARK  117  A    between atoms: _263  and  _264
REMARK  118  A    between atoms: _263  and  _266
REMARK  119  A    between atoms: _266  and  _267
REMARK  120  A    between atoms: _267  and  _268
REMARK  121  A    between atoms: _268  and  _269
REMARK  122  A    between atoms: _278  and  _280
REMARK  123  A    between atoms: _280  and  _281
REMARK  124  A    between atoms: _280  and  _283
REMARK  125  A    between atoms: _283  and  _284
REMARK  126  A    between atoms: _286  and  _288
REMARK  127  A    between atoms: _288  and  _289
REMARK  128  A    between atoms: _288  and  _291
REMARK  129  A    between atoms: _291  and  _292
REMARK  130  A    between atoms: _297  and  _299
REMARK  131  A    between atoms: _299  and  _300
REMARK  132  A    between atoms: _299  and  _302
REMARK  133  A    between atoms: _302  and  _303
REMARK  134  A    between atoms: _306  and  _308
REMARK  135  A    between atoms: _308  and  _309
REMARK  136  A    between atoms: _312  and  _314
REMARK  137  A    between atoms: _314  and  _315
REMARK  138  A    between atoms: _318  and  _320
REMARK  139  A    between atoms: _320  and  _321
REMARK  140  A    between atoms: _320  and  _323
REMARK  141  A    between atoms: _323  and  _324
REMARK  142  A    between atoms: _324  and  _325
REMARK  143  A    between atoms: _325  and  _326
REMARK  144  A    between atoms: _335  and  _337
REMARK  145  A    between atoms: _337  and  _338
REMARK  146  A    between atoms: _337  and  _340
REMARK  147  A    between atoms: _340  and  _341
REMARK  148  A    between atoms: _346  and  _348
REMARK  149  A    between atoms: _348  and  _349
REMARK  150  A    between atoms: _348  and  _351
REMARK  151  A    between atoms: _354  and  _356
REMARK  152  A    between atoms: _356  and  _357
REMARK  153  A    between atoms: _356  and  _359
REMARK  154  A    between atoms: _359  and  _360
REMARK  155  A    between atoms: _363  and  _365
REMARK  156  A    between atoms: _365  and  _366
REMARK  157  A    between atoms: _365  and  _368
REMARK  158  A    between atoms: _371  and  _373
REMARK  159  A    between atoms: _373  and  _374
REMARK  160  A    between atoms: _373  and  _376
REMARK  161  A    between atoms: _376  and  _377
REMARK  162  A    between atoms: _379  and  _381
REMARK  163  A    between atoms: _381  and  _382
REMARK  164  A    between atoms: _381  and  _384
REMARK  165  A    between atoms: _384  and  _385
REMARK  166  A    between atoms: _385  and  _386
REMARK  167  A    between atoms: _386  and  _387
REMARK  168  A    between atoms: _387  and  _388
REMARK  169  A    between atoms: _392  and  _394
REMARK  170  A    between atoms: _394  and  _395
REMARK  171  A    between atoms: _394  and  _397
REMARK  172  A    between atoms: _397  and  _398
REMARK  173  A    between atoms: _401  and  _403
REMARK  174  A    between atoms: _403  and  _404
REMARK  175  A    between atoms: _406  and  _408
REMARK  176  A    between atoms: _408  and  _409
REMARK  177  A    between atoms: _408  and  _411
REMARK  178  A    between atoms: _411  and  _412
REMARK  179  A    between atoms: _415  and  _417
REMARK  180  A    between atoms: _417  and  _418
REMARK  181  A    between atoms: _417  and  _420
REMARK  182  A    between atoms: _420  and  _421
REMARK  183  A    between atoms: _427  and  _429
REMARK  184  A    between atoms: _429  and  _430
REMARK  185  A    between atoms: _432  and  _434
REMARK  186  A    between atoms: _434  and  _435
REMARK  187  A    between atoms: _434  and  _437
REMARK  188  A    between atoms: _437  and  _438
REMARK  189  A    between atoms: _441  and  _443
REMARK  190  A    between atoms: _443  and  _444
REMARK  191  A    between atoms: _443  and  _446
REMARK  192  A    between atoms: _446  and  _447
REMARK  193  A    between atoms: _449  and  _451
REMARK  194  A    between atoms: _451  and  _452
REMARK  195  A    between atoms: _451  and  _454
REMARK  196  A    between atoms: _454  and  _455
REMARK  197  A    between atoms: _455  and  _456
REMARK  198  A    between atoms: _456  and  _457
REMARK  199  A    between atoms: _466  and  _468
REMARK  200  A    between atoms: _468  and  _469
REMARK  201  A    between atoms: _468  and  _471
REMARK  202  A    between atoms: _471  and  _472
REMARK  203  A    between atoms: _477  and  _478
REMARK  204  A    between atoms: _480  and  _482
REMARK  205  A    between atoms: _482  and  _483
REMARK  206  A    between atoms: _482  and  _485
REMARK  207  A    between atoms: _485  and  _486
REMARK  208  A    between atoms: _486  and  _487
REMARK                            x       y       z     vdW  Elec       q    Type
REMARK                         _______ _______ _______ _____ _____    ______ ____
ROOT
ATOM      1  O   HOH     1      28.296  -8.918 -50.371  0.00  0.00    +0.000 OA
ENDROOT
TORSDOF 0
REMARK  Name = ../refined-set-2016/4gu6/4gu6_pocket.pdb
REMARK  208 active torsions:
REMARK  status: ('A' for Active; 'I' for Inactive)
REMARK    1  A    between atoms: _1  and  _3
REMARK    2  A    between atoms: _3  and  _4
REMARK    3  A    between atoms: _3  and  _6
REMARK    4  A    between atoms: _8  and  _10
REMARK    5  A    between atoms: _10  and  _11
REMARK    6  A    between atoms: _10  and  _13
REMARK    7  A    between atoms: _13  and  _14
REMARK    8  A    between atoms: _17  and  _19
REMARK    9  A    between atoms: _19  and  _20
REMARK   10  A    between atoms: _22  and  _24
REMARK   11  A    between atoms: _24  and  _25
REMARK   12  A    between atoms: _24  and  _27
REMARK   13  A    between atoms: _27  and  _28
REMARK   14  A    between atoms: _28  and  _29
REMARK   15  A    between atoms: _32  and  _34
REMARK   16  A    between atoms: _34  and  _35
REMARK   17  A    between atoms: _37  and  _39
REMARK   18  A    between atoms: _39  and  _40
REMARK   19  A    between atoms: _39  and  _42
REMARK   20  A    between atoms: _42  and  _43
REMARK   21  A    between atoms: _43  and  _44
REMARK   22  A    between atoms: _49  and  _51
REMARK   23  A    between atoms: _51  and  _52
REMARK   24  A    between atoms: _54  and  _56
REMARK   25  A    between atoms: _56  and  _57
REMARK   26  A    between atoms: _56  and  _59
REMARK   27  A    between atoms: _59  and  _60
REMARK   28  A    between atoms: _63  and  _65
REMARK   29  A    between atoms: _65  and  _66
REMARK   30  A    between atoms: _65  and  _68
REMARK   31  A    between atoms: _71  and  _73
REMARK   32  A    between atoms: _73  and  _74
REMARK   33  A    between atoms: _73  and  _76
REMARK   34  A    between atoms: _76  and  _77
REMARK   35  A    between atoms: _82  and  _84
REMARK   36  A    between atoms: _84  and  _85
REMARK   37  A    between atoms: _84  and  _87
REMARK   38  A    between atoms: _87  and  _88
REMARK   39  A    between atoms: _88  and  _89
REMARK   40  A    between atoms: _94  and  _96
REMARK   41  A    between atoms: _96  and  _97
REMARK   42  A    between atoms: _100  and  _102
REMARK   43  A    between atoms: _102  and  _103
REMARK   44  A    between atoms: _102  and  _105
REMARK   45  A    between atoms: _108  and  _110
REMARK   46  A    between atoms: _110  and  _111
REMARK   47  A    between atoms: _114  and  _116
REMARK   48  A    between atoms: _116  and  _117
REMARK   49  A    between atoms: _116  and  _119
REMARK   50  A    between atoms: _119  and  _120
REMARK   51  A    between atoms: _123  and  _125
REMARK   52  A    between atoms: _125  and  _126
REMARK   53  A    between atoms: _125  and  _128
REMARK   54  A    between atoms: _128  and  _129
REMARK   55  A    between atoms: _129  and  _130
REMARK   56  A    between atoms: _130  and  _131
REMARK   57  A    between atoms: _131  and  _132
REMARK   58  A    between atoms: _136  and  _138
REMARK   59  A    between atoms: _138  and  _139
REMARK   60  A    between atoms: _138  and  _141
REMARK   61  A    between atoms: _141  and  _142
REMARK   62  A    between atoms: _142  and  _143
REMARK   63  A    between atoms: _145  and  _147
REMARK   64  A    between atoms: _147  and  _148
REMARK   65  A    between atoms: _147  and  _150
REMARK   66  A    between atoms: _153  and  _155
REMARK   67  A    between atoms: _155  and  _156
REMARK   68  A    between atoms: _155  and  _158
REMARK   69  A    between atoms: _158  and  _159
REMARK   70  A    between atoms: _159  and  _160
REMARK   71  A    between atoms: _160  and  _161
REMARK   72  A    between atoms: _161  and  _162
REMARK   73  A    between atoms: _166  and  _168
REMARK   74  A    between atoms: _168  and  _169
REMARK   75  A    between atoms: _168  and  _171
REMARK   76  A    between atoms: _171  and  _172
REMARK   77  A    between atoms: _175  and  _177
REMARK   78  A    between atoms: _177  and  _178
REMARK   79  A    between atoms: _177  and  _180
REMARK   80  A    between atoms: _180  and  _181
REMARK   81  A    between atoms: _184  and  _186
REMARK   82  A    between atoms: _186  and  _187
REMARK   83  A    between atoms: _186  and  _189
REMARK   84  A    between atoms: _189  and  _190
REMARK   85  A    between atoms: _190  and  _191
REMARK   86  A    between atoms: _193  and  _195
REMARK   87  A    between atoms: _195  and  _196
REMARK   88  A    between atoms: _195  and  _198
REMARK   89  A    between atoms: _199  and  _200
REMARK   90  A    between atoms: _203  and  _205
REMARK   91  A    between atoms: _205  and  _206
REMARK   92  A    between atoms: _205  and  _208
REMARK   93  A    between atoms: _208  and  _209
REMARK   94  A    between atoms: _212  and  _214
REMARK   95  A    between atoms: _214  and  _215
REMARK   96  A    between atoms: _214  and  _217
REMARK   97  A    between atoms: _219  and  _221
REMARK   98  A    between atoms: _221  and  _222
REMARK   99  A    between atoms: _221  and  _224
REMARK  100  A    between atoms: _224  and  _225
REMARK  101  A    between atoms: _228  and  _230
REMARK  102  A    between atoms: _230  and  _231
REMARK  103  A    between atoms: _230  and  _233
REMARK  104  A    between atoms: _233  and  _234
REMARK  105  A    between atoms: _237  and  _239
REMARK  106  A    between atoms: _239  and  _240
REMARK  107  A    between atoms: _242  and  _244
REMARK  108  A    between atoms: _244  and  _245
REMARK  109  A    between atoms: _244  and  _247
REMARK  110  A    between atoms: _247  and  _248
REMARK  111  A    between atoms: _248  and  _249
REMARK  112  A    between atoms: _252  and  _254
REMARK  113  A    between atoms: _254  and  _255
REMARK  114  A    between atoms: _254  and  _257
REMARK  115  A    between atoms: _257  and  _258
REMARK  116  A    between atoms: _261  and  _263
REMARK  117  A    between atoms: _263  and  _264
REMARK  118  A    between atoms: _263  and  _266
REMARK  119  A    between atoms: _266  and  _267
REMARK  120  A    between atoms: _267  and  _268
REMARK  121  A    between atoms: _268  and  _269
REMARK  122  A    between atoms: _278  and  _280
REMARK  123  A    between atoms: _280  and  _281
REMARK  124  A    between atoms: _280  and  _283
REMARK  125  A    between atoms: _283  and  _284
REMARK  126  A    between atoms: _286  and  _288
REMARK  127  A    between atoms: _288  and  _289
REMARK  128  A    between atoms: _288  and  _291
REMARK  129  A    between atoms: _291  and  _292
REMARK  130  A    between atoms: _297  and  _299
REMARK  131  A    between atoms: _299  and  _300
REMARK  132  A    between atoms: _299  and  _302
REMARK  133  A    between atoms: _302  and  _303
REMARK  134  A    between atoms: _306  and  _308
REMARK  135  A    between atoms: _308  and  _309
REMARK  136  A    between atoms: _312  and  _314
REMARK  137  A    between atoms: _314  and  _315
REMARK  138  A    between atoms: _318  and  _320
REMARK  139  A    between atoms: _320  and  _321
REMARK  140  A    between atoms: _320  and  _323
REMARK  141  A    between atoms: _323  and  _324
REMARK  142  A    between atoms: _324  and  _325
REMARK  143  A    between atoms: _325  and  _326
REMARK  144  A    between atoms: _335  and  _337
REMARK  145  A    between atoms: _337  and  _338
REMARK  146  A    between atoms: _337  and  _340
REMARK  147  A    between atoms: _340  and  _341
REMARK  148  A    between atoms: _346  and  _348
REMARK  149  A    between atoms: _348  and  _349
REMARK  150  A    between atoms: _348  and  _351
REMARK  151  A    between atoms: _354  and  _356
REMARK  152  A    between atoms: _356  and  _357
REMARK  153  A    between atoms: _356  and  _359
REMARK  154  A    between atoms: _359  and  _360
REMARK  155  A    between atoms: _363  and  _365
REMARK  156  A    between atoms: _365  and  _366
REMARK  157  A    between atoms: _365  and  _368
REMARK  158  A    between atoms: _371  and  _373
REMARK  159  A    between atoms: _373  and  _374
REMARK  160  A    between atoms: _373  and  _376
REMARK  161  A    between atoms: _376  and  _377
REMARK  162  A    between atoms: _379  and  _381
REMARK  163  A    between atoms: _381  and  _382
REMARK  164  A    between atoms: _381  and  _384
REMARK  165  A    between atoms: _384  and  _385
REMARK  166  A    between atoms: _385  and  _386
REMARK  167  A    between atoms: _386  and  _387
REMARK  168  A    between atoms: _387  and  _388
REMARK  169  A    between atoms: _392  and  _394
REMARK  170  A    between atoms: _394  and  _395
REMARK  171  A    between atoms: _394  and  _397
REMARK  172  A    between atoms: _397  and  _398
REMARK  173  A    between atoms: _401  and  _403
REMARK  174  A    between atoms: _403  and  _404
REMARK  175  A    between atoms: _406  and  _408
REMARK  176  A    between atoms: _408  and  _409
REMARK  177  A    between atoms: _408  and  _411
REMARK  178  A    between atoms: _411  and  _412
REMARK  179  A    between atoms: _415  and  _417
REMARK  180  A    between atoms: _417  and  _418
REMARK  181  A    between atoms: _417  and  _420
REMARK  182  A    between atoms: _420  and  _421
REMARK  183  A    between atoms: _427  and  _429
REMARK  184  A    between atoms: _429  and  _430
REMARK  185  A    between atoms: _432  and  _434
REMARK  186  A    between atoms: _434  and  _435
REMARK  187  A    between atoms: _434  and  _437
REMARK  188  A    between atoms: _437  and  _438
REMARK  189  A    between atoms: _441  and  _443
REMARK  190  A    between atoms: _443  and  _444
REMARK  191  A    between atoms: _443  and  _446
REMARK  192  A    between atoms: _446  and  _447
REMARK  193  A    between atoms: _449  and  _451
REMARK  194  A    between atoms: _451  and  _452
REMARK  195  A    between atoms: _451  and  _454
REMARK  196  A    between atoms: _454  and  _455
REMARK  197  A    between atoms: _455  and  _456
REMARK  198  A    between atoms: _456  and  _457
REMARK  199  A    between atoms: _466  and  _468
REMARK  200  A    between atoms: _468  and  _469
REMARK  201  A    between atoms: _468  and  _471
REMARK  202  A    between atoms: _471  and  _472
REMARK  203  A    between atoms: _477  and  _478
REMARK  204  A    between atoms: _480  and  _482
REMARK  205  A    between atoms: _482  and  _483
REMARK  206  A    between atoms: _482  and  _485
REMARK  207  A    between atoms: _485  and  _486
REMARK  208  A    between atoms: _486  and  _487
REMARK                            x       y       z     vdW  Elec       q    Type
REMARK                         _______ _______ _______ _____ _____    ______ ____
ROOT
ATOM      1  O   HOH     1      15.878 -10.702 -45.213  0.00  0.00    +0.000 OA
ENDROOT
TORSDOF 0
REMARK  Name = ../refined-set-2016/4gu6/4gu6_pocket.pdb
REMARK  208 active torsions:
REMARK  status: ('A' for Active; 'I' for Inactive)
REMARK    1  A    between atoms: _1  and  _3
REMARK    2  A    between atoms: _3  and  _4
REMARK    3  A    between atoms: _3  and  _6
REMARK    4  A    between atoms: _8  and  _10
REMARK    5  A    between atoms: _10  and  _11
REMARK    6  A    between atoms: _10  and  _13
REMARK    7  A    between atoms: _13  and  _14
REMARK    8  A    between atoms: _17  and  _19
REMARK    9  A    between atoms: _19  and  _20
REMARK   10  A    between atoms: _22  and  _24
REMARK   11  A    between atoms: _24  and  _25
REMARK   12  A    between atoms: _24  and  _27
REMARK   13  A    between atoms: _27  and  _28
REMARK   14  A    between atoms: _28  and  _29
REMARK   15  A    between atoms: _32  and  _34
REMARK   16  A    between atoms: _34  and  _35
REMARK   17  A    between atoms: _37  and  _39
REMARK   18  A    between atoms: _39  and  _40
REMARK   19  A    between atoms: _39  and  _42
REMARK   20  A    between atoms: _42  and  _43
REMARK   21  A    between atoms: _43  and  _44
REMARK   22  A    between atoms: _49  and  _51
REMARK   23  A    between atoms: _51  and  _52
REMARK   24  A    between atoms: _54  and  _56
REMARK   25  A    between atoms: _56  and  _57
REMARK   26  A    between atoms: _56  and  _59
REMARK   27  A    between atoms: _59  and  _60
REMARK   28  A    between atoms: _63  and  _65
REMARK   29  A    between atoms: _65  and  _66
REMARK   30  A    between atoms: _65  and  _68
REMARK   31  A    between atoms: _71  and  _73
REMARK   32  A    between atoms: _73  and  _74
REMARK   33  A    between atoms: _73  and  _76
REMARK   34  A    between atoms: _76  and  _77
REMARK   35  A    between atoms: _82  and  _84
REMARK   36  A    between atoms: _84  and  _85
REMARK   37  A    between atoms: _84  and  _87
REMARK   38  A    between atoms: _87  and  _88
REMARK   39  A    between atoms: _88  and  _89
REMARK   40  A    between atoms: _94  and  _96
REMARK   41  A    between atoms: _96  and  _97
REMARK   42  A    between atoms: _100  and  _102
REMARK   43  A    between atoms: _102  and  _103
REMARK   44  A    between atoms: _102  and  _105
REMARK   45  A    between atoms: _108  and  _110
REMARK   46  A    between atoms: _110  and  _111
REMARK   47  A    between atoms: _114  and  _116
REMARK   48  A    between atoms: _116  and  _117
REMARK   49  A    between atoms: _116  and  _119
REMARK   50  A    between atoms: _119  and  _120
REMARK   51  A    between atoms: _123  and  _125
REMARK   52  A    between atoms: _125  and  _126
REMARK   53  A    between atoms: _125  and  _128
REMARK   54  A    between atoms: _128  and  _129
REMARK   55  A    between atoms: _129  and  _130
REMARK   56  A    between atoms: _130  and  _131
REMARK   57  A    between atoms: _131  and  _132
REMARK   58  A    between atoms: _136  and  _138
REMARK   59  A    between atoms: _138  and  _139
REMARK   60  A    between atoms: _138  and  _141
REMARK   61  A    between atoms: _141  and  _142
REMARK   62  A    between atoms: _142  and  _143
REMARK   63  A    between atoms: _145  and  _147
REMARK   64  A    between atoms: _147  and  _148
REMARK   65  A    between atoms: _147  and  _150
REMARK   66  A    between atoms: _153  and  _155
REMARK   67  A    between atoms: _155  and  _156
REMARK   68  A    between atoms: _155  and  _158
REMARK   69  A    between atoms: _158  and  _159
REMARK   70  A    between atoms: _159  and  _160
REMARK   71  A    between atoms: _160  and  _161
REMARK   72  A    between atoms: _161  and  _162
REMARK   73  A    between atoms: _166  and  _168
REMARK   74  A    between atoms: _168  and  _169
REMARK   75  A    between atoms: _168  and  _171
REMARK   76  A    between atoms: _171  and  _172
REMARK   77  A    between atoms: _175  and  _177
REMARK   78  A    between atoms: _177  and  _178
REMARK   79  A    between atoms: _177  and  _180
REMARK   80  A    between atoms: _180  and  _181
REMARK   81  A    between atoms: _184  and  _186
REMARK   82  A    between atoms: _186  and  _187
REMARK   83  A    between atoms: _186  and  _189
REMARK   84  A    between atoms: _189  and  _190
REMARK   85  A    between atoms: _190  and  _191
REMARK   86  A    between atoms: _193  and  _195
REMARK   87  A    between atoms: _195  and  _196
REMARK   88  A    between atoms: _195  and  _198
REMARK   89  A    between atoms: _199  and  _200
REMARK   90  A    between atoms: _203  and  _205
REMARK   91  A    between atoms: _205  and  _206
REMARK   92  A    between atoms: _205  and  _208
REMARK   93  A    between atoms: _208  and  _209
REMARK   94  A    between atoms: _212  and  _214
REMARK   95  A    between atoms: _214  and  _215
REMARK   96  A    between atoms: _214  and  _217
REMARK   97  A    between atoms: _219  and  _221
REMARK   98  A    between atoms: _221  and  _222
REMARK   99  A    between atoms: _221  and  _224
REMARK  100  A    between atoms: _224  and  _225
REMARK  101  A    between atoms: _228  and  _230
REMARK  102  A    between atoms: _230  and  _231
REMARK  103  A    between atoms: _230  and  _233
REMARK  104  A    between atoms: _233  and  _234
REMARK  105  A    between atoms: _237  and  _239
REMARK  106  A    between atoms: _239  and  _240
REMARK  107  A    between atoms: _242  and  _244
REMARK  108  A    between atoms: _244  and  _245
REMARK  109  A    between atoms: _244  and  _247
REMARK  110  A    between atoms: _247  and  _248
REMARK  111  A    between atoms: _248  and  _249
REMARK  112  A    between atoms: _252  and  _254
REMARK  113  A    between atoms: _254  and  _255
REMARK  114  A    between atoms: _254  and  _257
REMARK  115  A    between atoms: _257  and  _258
REMARK  116  A    between atoms: _261  and  _263
REMARK  117  A    between atoms: _263  and  _264
REMARK  118  A    between atoms: _263  and  _266
REMARK  119  A    between atoms: _266  and  _267
REMARK  120  A    between atoms: _267  and  _268
REMARK  121  A    between atoms: _268  and  _269
REMARK  122  A    between atoms: _278  and  _280
REMARK  123  A    between atoms: _280  and  _281
REMARK  124  A    between atoms: _280  and  _283
REMARK  125  A    between atoms: _283  and  _284
REMARK  126  A    between atoms: _286  and  _288
REMARK  127  A    between atoms: _288  and  _289
REMARK  128  A    between atoms: _288  and  _291
REMARK  129  A    between atoms: _291  and  _292
REMARK  130  A    between atoms: _297  and  _299
REMARK  131  A    between atoms: _299  and  _300
REMARK  132  A    between atoms: _299  and  _302
REMARK  133  A    between atoms: _302  and  _303
REMARK  134  A    between atoms: _306  and  _308
REMARK  135  A    between atoms: _308  and  _309
REMARK  136  A    between atoms: _312  and  _314
REMARK  137  A    between atoms: _314  and  _315
REMARK  138  A    between atoms: _318  and  _320
REMARK  139  A    between atoms: _320  and  _321
REMARK  140  A    between atoms: _320  and  _323
REMARK  141  A    between atoms: _323  and  _324
REMARK  142  A    between atoms: _324  and  _325
REMARK  143  A    between atoms: _325  and  _326
REMARK  144  A    between atoms: _335  and  _337
REMARK  145  A    between atoms: _337  and  _338
REMARK  146  A    between atoms: _337  and  _340
REMARK  147  A    between atoms: _340  and  _341
REMARK  148  A    between atoms: _346  and  _348
REMARK  149  A    between atoms: _348  and  _349
REMARK  150  A    between atoms: _348  and  _351
REMARK  151  A    between atoms: _354  and  _356
REMARK  152  A    between atoms: _356  and  _357
REMARK  153  A    between atoms: _356  and  _359
REMARK  154  A    between atoms: _359  and  _360
REMARK  155  A    between atoms: _363  and  _365
REMARK  156  A    between atoms: _365  and  _366
REMARK  157  A    between atoms: _365  and  _368
REMARK  158  A    between atoms: _371  and  _373
REMARK  159  A    between atoms: _373  and  _374
REMARK  160  A    between atoms: _373  and  _376
REMARK  161  A    between atoms: _376  and  _377
REMARK  162  A    between atoms: _379  and  _381
REMARK  163  A    between atoms: _381  and  _382
REMARK  164  A    between atoms: _381  and  _384
REMARK  165  A    between atoms: _384  and  _385
REMARK  166  A    between atoms: _385  and  _386
REMARK  167  A    between atoms: _386  and  _387
REMARK  168  A    between atoms: _387  and  _388
REMARK  169  A    between atoms: _392  and  _394
REMARK  170  A    between atoms: _394  and  _395
REMARK  171  A    between atoms: _394  and  _397
REMARK  172  A    between atoms: _397  and  _398
REMARK  173  A    between atoms: _401  and  _403
REMARK  174  A    between atoms: _403  and  _404
REMARK  175  A    between atoms: _406  and  _408
REMARK  176  A    between atoms: _408  and  _409
REMARK  177  A    between atoms: _408  and  _411
REMARK  178  A    between atoms: _411  and  _412
REMARK  179  A    between atoms: _415  and  _417
REMARK  180  A    between atoms: _417  and  _418
REMARK  181  A    between atoms: _417  and  _420
REMARK  182  A    between atoms: _420  and  _421
REMARK  183  A    between atoms: _427  and  _429
REMARK  184  A    between atoms: _429  and  _430
REMARK  185  A    between atoms: _432  and  _434
REMARK  186  A    between atoms: _434  and  _435
REMARK  187  A    between atoms: _434  and  _437
REMARK  188  A    between atoms: _437  and  _438
REMARK  189  A    between atoms: _441  and  _443
REMARK  190  A    between atoms: _443  and  _444
REMARK  191  A    between atoms: _443  and  _446
REMARK  192  A    between atoms: _446  and  _447
REMARK  193  A    between atoms: _449  and  _451
REMARK  194  A    between atoms: _451  and  _452
REMARK  195  A    between atoms: _451  and  _454
REMARK  196  A    between atoms: _454  and  _455
REMARK  197  A    between atoms: _455  and  _456
REMARK  198  A    between atoms: _456  and  _457
REMARK  199  A    between atoms: _466  and  _468
REMARK  200  A    between atoms: _468  and  _469
REMARK  201  A    between atoms: _468  and  _471
REMARK  202  A    between atoms: _471  and  _472
REMARK  203  A    between atoms: _477  and  _478
REMARK  204  A    between atoms: _480  and  _482
REMARK  205  A    between atoms: _482  and  _483
REMARK  206  A    between atoms: _482  and  _485
REMARK  207  A    between atoms: _485  and  _486
REMARK  208  A    between atoms: _486  and  _487
REMARK                            x       y       z     vdW  Elec       q    Type
REMARK                         _______ _______ _______ _____ _____    ______ ____
ROOT
ATOM      1  O   HOH     1      12.993  -7.058 -45.004  0.00  0.00    +0.000 OA
ENDROOT
TORSDOF 0
REMARK  Name = ../refined-set-2016/4gu6/4gu6_pocket.pdb
REMARK  208 active torsions:
REMARK  status: ('A' for Active; 'I' for Inactive)
REMARK    1  A    between atoms: _1  and  _3
REMARK    2  A    between atoms: _3  and  _4
REMARK    3  A    between atoms: _3  and  _6
REMARK    4  A    between atoms: _8  and  _10
REMARK    5  A    between atoms: _10  and  _11
REMARK    6  A    between atoms: _10  and  _13
REMARK    7  A    between atoms: _13  and  _14
REMARK    8  A    between atoms: _17  and  _19
REMARK    9  A    between atoms: _19  and  _20
REMARK   10  A    between atoms: _22  and  _24
REMARK   11  A    between atoms: _24  and  _25
REMARK   12  A    between atoms: _24  and  _27
REMARK   13  A    between atoms: _27  and  _28
REMARK   14  A    between atoms: _28  and  _29
REMARK   15  A    between atoms: _32  and  _34
REMARK   16  A    between atoms: _34  and  _35
REMARK   17  A    between atoms: _37  and  _39
REMARK   18  A    between atoms: _39  and  _40
REMARK   19  A    between atoms: _39  and  _42
REMARK   20  A    between atoms: _42  and  _43
REMARK   21  A    between atoms: _43  and  _44
REMARK   22  A    between atoms: _49  and  _51
REMARK   23  A    between atoms: _51  and  _52
REMARK   24  A    between atoms: _54  and  _56
REMARK   25  A    between atoms: _56  and  _57
REMARK   26  A    between atoms: _56  and  _59
REMARK   27  A    between atoms: _59  and  _60
REMARK   28  A    between atoms: _63  and  _65
REMARK   29  A    between atoms: _65  and  _66
REMARK   30  A    between atoms: _65  and  _68
REMARK   31  A    between atoms: _71  and  _73
REMARK   32  A    between atoms: _73  and  _74
REMARK   33  A    between atoms: _73  and  _76
REMARK   34  A    between atoms: _76  and  _77
REMARK   35  A    between atoms: _82  and  _84
REMARK   36  A    between atoms: _84  and  _85
REMARK   37  A    between atoms: _84  and  _87
REMARK   38  A    between atoms: _87  and  _88
REMARK   39  A    between atoms: _88  and  _89
REMARK   40  A    between atoms: _94  and  _96
REMARK   41  A    between atoms: _96  and  _97
REMARK   42  A    between atoms: _100  and  _102
REMARK   43  A    between atoms: _102  and  _103
REMARK   44  A    between atoms: _102  and  _105
REMARK   45  A    between atoms: _108  and  _110
REMARK   46  A    between atoms: _110  and  _111
REMARK   47  A    between atoms: _114  and  _116
REMARK   48  A    between atoms: _116  and  _117
REMARK   49  A    between atoms: _116  and  _119
REMARK   50  A    between atoms: _119  and  _120
REMARK   51  A    between atoms: _123  and  _125
REMARK   52  A    between atoms: _125  and  _126
REMARK   53  A    between atoms: _125  and  _128
REMARK   54  A    between atoms: _128  and  _129
REMARK   55  A    between atoms: _129  and  _130
REMARK   56  A    between atoms: _130  and  _131
REMARK   57  A    between atoms: _131  and  _132
REMARK   58  A    between atoms: _136  and  _138
REMARK   59  A    between atoms: _138  and  _139
REMARK   60  A    between atoms: _138  and  _141
REMARK   61  A    between atoms: _141  and  _142
REMARK   62  A    between atoms: _142  and  _143
REMARK   63  A    between atoms: _145  and  _147
REMARK   64  A    between atoms: _147  and  _148
REMARK   65  A    between atoms: _147  and  _150
REMARK   66  A    between atoms: _153  and  _155
REMARK   67  A    between atoms: _155  and  _156
REMARK   68  A    between atoms: _155  and  _158
REMARK   69  A    between atoms: _158  and  _159
REMARK   70  A    between atoms: _159  and  _160
REMARK   71  A    between atoms: _160  and  _161
REMARK   72  A    between atoms: _161  and  _162
REMARK   73  A    between atoms: _166  and  _168
REMARK   74  A    between atoms: _168  and  _169
REMARK   75  A    between atoms: _168  and  _171
REMARK   76  A    between atoms: _171  and  _172
REMARK   77  A    between atoms: _175  and  _177
REMARK   78  A    between atoms: _177  and  _178
REMARK   79  A    between atoms: _177  and  _180
REMARK   80  A    between atoms: _180  and  _181
REMARK   81  A    between atoms: _184  and  _186
REMARK   82  A    between atoms: _186  and  _187
REMARK   83  A    between atoms: _186  and  _189
REMARK   84  A    between atoms: _189  and  _190
REMARK   85  A    between atoms: _190  and  _191
REMARK   86  A    between atoms: _193  and  _195
REMARK   87  A    between atoms: _195  and  _196
REMARK   88  A    between atoms: _195  and  _198
REMARK   89  A    between atoms: _199  and  _200
REMARK   90  A    between atoms: _203  and  _205
REMARK   91  A    between atoms: _205  and  _206
REMARK   92  A    between atoms: _205  and  _208
REMARK   93  A    between atoms: _208  and  _209
REMARK   94  A    between atoms: _212  and  _214
REMARK   95  A    between atoms: _214  and  _215
REMARK   96  A    between atoms: _214  and  _217
REMARK   97  A    between atoms: _219  and  _221
REMARK   98  A    between atoms: _221  and  _222
REMARK   99  A    between atoms: _221  and  _224
REMARK  100  A    between atoms: _224  and  _225
REMARK  101  A    between atoms: _228  and  _230
REMARK  102  A    between atoms: _230  and  _231
REMARK  103  A    between atoms: _230  and  _233
REMARK  104  A    between atoms: _233  and  _234
REMARK  105  A    between atoms: _237  and  _239
REMARK  106  A    between atoms: _239  and  _240
REMARK  107  A    between atoms: _242  and  _244
REMARK  108  A    between atoms: _244  and  _245
REMARK  109  A    between atoms: _244  and  _247
REMARK  110  A    between atoms: _247  and  _248
REMARK  111  A    between atoms: _248  and  _249
REMARK  112  A    between atoms: _252  and  _254
REMARK  113  A    between atoms: _254  and  _255
REMARK  114  A    between atoms: _254  and  _257
REMARK  115  A    between atoms: _257  and  _258
REMARK  116  A    between atoms: _261  and  _263
REMARK  117  A    between atoms: _263  and  _264
REMARK  118  A    between atoms: _263  and  _266
REMARK  119  A    between atoms: _266  and  _267
REMARK  120  A    between atoms: _267  and  _268
REMARK  121  A    between atoms: _268  and  _269
REMARK  122  A    between atoms: _278  and  _280
REMARK  123  A    between atoms: _280  and  _281
REMARK  124  A    between atoms: _280  and  _283
REMARK  125  A    between atoms: _283  and  _284
REMARK  126  A    between atoms: _286  and  _288
REMARK  127  A    between atoms: _288  and  _289
REMARK  128  A    between atoms: _288  and  _291
REMARK  129  A    between atoms: _291  and  _292
REMARK  130  A    between atoms: _297  and  _299
REMARK  131  A    between atoms: _299  and  _300
REMARK  132  A    between atoms: _299  and  _302
REMARK  133  A    between atoms: _302  and  _303
REMARK  134  A    between atoms: _306  and  _308
REMARK  135  A    between atoms: _308  and  _309
REMARK  136  A    between atoms: _312  and  _314
REMARK  137  A    between atoms: _314  and  _315
REMARK  138  A    between atoms: _318  and  _320
REMARK  139  A    between atoms: _320  and  _321
REMARK  140  A    between atoms: _320  and  _323
REMARK  141  A    between atoms: _323  and  _324
REMARK  142  A    between atoms: _324  and  _325
REMARK  143  A    between atoms: _325  and  _326
REMARK  144  A    between atoms: _335  and  _337
REMARK  145  A    between atoms: _337  and  _338
REMARK  146  A    between atoms: _337  and  _340
REMARK  147  A    between atoms: _340  and  _341
REMARK  148  A    between atoms: _346  and  _348
REMARK  149  A    between atoms: _348  and  _349
REMARK  150  A    between atoms: _348  and  _351
REMARK  151  A    between atoms: _354  and  _356
REMARK  152  A    between atoms: _356  and  _357
REMARK  153  A    between atoms: _356  and  _359
REMARK  154  A    between atoms: _359  and  _360
REMARK  155  A    between atoms: _363  and  _365
REMARK  156  A    between atoms: _365  and  _366
REMARK  157  A    between atoms: _365  and  _368
REMARK  158  A    between atoms: _371  and  _373
REMARK  159  A    between atoms: _373  and  _374
REMARK  160  A    between atoms: _373  and  _376
REMARK  161  A    between atoms: _376  and  _377
REMARK  162  A    between atoms: _379  and  _381
REMARK  163  A    between atoms: _381  and  _382
REMARK  164  A    between atoms: _381  and  _384
REMARK  165  A    between atoms: _384  and  _385
REMARK  166  A    between atoms: _385  and  _386
REMARK  167  A    between atoms: _386  and  _387
REMARK  168  A    between atoms: _387  and  _388
REMARK  169  A    between atoms: _392  and  _394
REMARK  170  A    between atoms: _394  and  _395
REMARK  171  A    between atoms: _394  and  _397
REMARK  172  A    between atoms: _397  and  _398
REMARK  173  A    between atoms: _401  and  _403
REMARK  174  A    between atoms: _403  and  _404
REMARK  175  A    between atoms: _406  and  _408
REMARK  176  A    between atoms: _408  and  _409
REMARK  177  A    between atoms: _408  and  _411
REMARK  178  A    between atoms: _411  and  _412
REMARK  179  A    between atoms: _415  and  _417
REMARK  180  A    between atoms: _417  and  _418
REMARK  181  A    between atoms: _417  and  _420
REMARK  182  A    between atoms: _420  and  _421
REMARK  183  A    between atoms: _427  and  _429
REMARK  184  A    between atoms: _429  and  _430
REMARK  185  A    between atoms: _432  and  _434
REMARK  186  A    between atoms: _434  and  _435
REMARK  187  A    between atoms: _434  and  _437
REMARK  188  A    between atoms: _437  and  _438
REMARK  189  A    between atoms: _441  and  _443
REMARK  190  A    between atoms: _443  and  _444
REMARK  191  A    between atoms: _443  and  _446
REMARK  192  A    between atoms: _446  and  _447
REMARK  193  A    between atoms: _449  and  _451
REMARK  194  A    between atoms: _451  and  _452
REMARK  195  A    between atoms: _451  and  _454
REMARK  196  A    between atoms: _454  and  _455
REMARK  197  A    between atoms: _455  and  _456
REMARK  198  A    between atoms: _456  and  _457
REMARK  199  A    between atoms: _466  and  _468
REMARK  200  A    between atoms: _468  and  _469
REMARK  201  A    between atoms: _468  and  _471
REMARK  202  A    between atoms: _471  and  _472
REMARK  203  A    between atoms: _477  and  _478
REMARK  204  A    between atoms: _480  and  _482
REMARK  205  A    between atoms: _482  and  _483
REMARK  206  A    between atoms: _482  and  _485
REMARK  207  A    between atoms: _485  and  _486
REMARK  208  A    between atoms: _486  and  _487
REMARK                            x       y       z     vdW  Elec       q    Type
REMARK                         _______ _______ _______ _____ _____    ______ ____
ROOT
ATOM      1  O   HOH     1      15.693 -13.248 -45.321  0.00  0.00    +0.000 OA
ENDROOT
TORSDOF 0
REMARK  Name = ../refined-set-2016/4gu6/4gu6_pocket.pdb
REMARK  208 active torsions:
REMARK  status: ('A' for Active; 'I' for Inactive)
REMARK    1  A    between atoms: _1  and  _3
REMARK    2  A    between atoms: _3  and  _4
REMARK    3  A    between atoms: _3  and  _6
REMARK    4  A    between atoms: _8  and  _10
REMARK    5  A    between atoms: _10  and  _11
REMARK    6  A    between atoms: _10  and  _13
REMARK    7  A    between atoms: _13  and  _14
REMARK    8  A    between atoms: _17  and  _19
REMARK    9  A    between atoms: _19  and  _20
REMARK   10  A    between atoms: _22  and  _24
REMARK   11  A    between atoms: _24  and  _25
REMARK   12  A    between atoms: _24  and  _27
REMARK   13  A    between atoms: _27  and  _28
REMARK   14  A    between atoms: _28  and  _29
REMARK   15  A    between atoms: _32  and  _34
REMARK   16  A    between atoms: _34  and  _35
REMARK   17  A    between atoms: _37  and  _39
REMARK   18  A    between atoms: _39  and  _40
REMARK   19  A    between atoms: _39  and  _42
REMARK   20  A    between atoms: _42  and  _43
REMARK   21  A    between atoms: _43  and  _44
REMARK   22  A    between atoms: _49  and  _51
REMARK   23  A    between atoms: _51  and  _52
REMARK   24  A    between atoms: _54  and  _56
REMARK   25  A    between atoms: _56  and  _57
REMARK   26  A    between atoms: _56  and  _59
REMARK   27  A    between atoms: _59  and  _60
REMARK   28  A    between atoms: _63  and  _65
REMARK   29  A    between atoms: _65  and  _66
REMARK   30  A    between atoms: _65  and  _68
REMARK   31  A    between atoms: _71  and  _73
REMARK   32  A    between atoms: _73  and  _74
REMARK   33  A    between atoms: _73  and  _76
REMARK   34  A    between atoms: _76  and  _77
REMARK   35  A    between atoms: _82  and  _84
REMARK   36  A    between atoms: _84  and  _85
REMARK   37  A    between atoms: _84  and  _87
REMARK   38  A    between atoms: _87  and  _88
REMARK   39  A    between atoms: _88  and  _89
REMARK   40  A    between atoms: _94  and  _96
REMARK   41  A    between atoms: _96  and  _97
REMARK   42  A    between atoms: _100  and  _102
REMARK   43  A    between atoms: _102  and  _103
REMARK   44  A    between atoms: _102  and  _105
REMARK   45  A    between atoms: _108  and  _110
REMARK   46  A    between atoms: _110  and  _111
REMARK   47  A    between atoms: _114  and  _116
REMARK   48  A    between atoms: _116  and  _117
REMARK   49  A    between atoms: _116  and  _119
REMARK   50  A    between atoms: _119  and  _120
REMARK   51  A    between atoms: _123  and  _125
REMARK   52  A    between atoms: _125  and  _126
REMARK   53  A    between atoms: _125  and  _128
REMARK   54  A    between atoms: _128  and  _129
REMARK   55  A    between atoms: _129  and  _130
REMARK   56  A    between atoms: _130  and  _131
REMARK   57  A    between atoms: _131  and  _132
REMARK   58  A    between atoms: _136  and  _138
REMARK   59  A    between atoms: _138  and  _139
REMARK   60  A    between atoms: _138  and  _141
REMARK   61  A    between atoms: _141  and  _142
REMARK   62  A    between atoms: _142  and  _143
REMARK   63  A    between atoms: _145  and  _147
REMARK   64  A    between atoms: _147  and  _148
REMARK   65  A    between atoms: _147  and  _150
REMARK   66  A    between atoms: _153  and  _155
REMARK   67  A    between atoms: _155  and  _156
REMARK   68  A    between atoms: _155  and  _158
REMARK   69  A    between atoms: _158  and  _159
REMARK   70  A    between atoms: _159  and  _160
REMARK   71  A    between atoms: _160  and  _161
REMARK   72  A    between atoms: _161  and  _162
REMARK   73  A    between atoms: _166  and  _168
REMARK   74  A    between atoms: _168  and  _169
REMARK   75  A    between atoms: _168  and  _171
REMARK   76  A    between atoms: _171  and  _172
REMARK   77  A    between atoms: _175  and  _177
REMARK   78  A    between atoms: _177  and  _178
REMARK   79  A    between atoms: _177  and  _180
REMARK   80  A    between atoms: _180  and  _181
REMARK   81  A    between atoms: _184  and  _186
REMARK   82  A    between atoms: _186  and  _187
REMARK   83  A    between atoms: _186  and  _189
REMARK   84  A    between atoms: _189  and  _190
REMARK   85  A    between atoms: _190  and  _191
REMARK   86  A    between atoms: _193  and  _195
REMARK   87  A    between atoms: _195  and  _196
REMARK   88  A    between atoms: _195  and  _198
REMARK   89  A    between atoms: _199  and  _200
REMARK   90  A    between atoms: _203  and  _205
REMARK   91  A    between atoms: _205  and  _206
REMARK   92  A    between atoms: _205  and  _208
REMARK   93  A    between atoms: _208  and  _209
REMARK   94  A    between atoms: _212  and  _214
REMARK   95  A    between atoms: _214  and  _215
REMARK   96  A    between atoms: _214  and  _217
REMARK   97  A    between atoms: _219  and  _221
REMARK   98  A    between atoms: _221  and  _222
REMARK   99  A    between atoms: _221  and  _224
REMARK  100  A    between atoms: _224  and  _225
REMARK  101  A    between atoms: _228  and  _230
REMARK  102  A    between atoms: _230  and  _231
REMARK  103  A    between atoms: _230  and  _233
REMARK  104  A    between atoms: _233  and  _234
REMARK  105  A    between atoms: _237  and  _239
REMARK  106  A    between atoms: _239  and  _240
REMARK  107  A    between atoms: _242  and  _244
REMARK  108  A    between atoms: _244  and  _245
REMARK  109  A    between atoms: _244  and  _247
REMARK  110  A    between atoms: _247  and  _248
REMARK  111  A    between atoms: _248  and  _249
REMARK  112  A    between atoms: _252  and  _254
REMARK  113  A    between atoms: _254  and  _255
REMARK  114  A    between atoms: _254  and  _257
REMARK  115  A    between atoms: _257  and  _258
REMARK  116  A    between atoms: _261  and  _263
REMARK  117  A    between atoms: _263  and  _264
REMARK  118  A    between atoms: _263  and  _266
REMARK  119  A    between atoms: _266  and  _267
REMARK  120  A    between atoms: _267  and  _268
REMARK  121  A    between atoms: _268  and  _269
REMARK  122  A    between atoms: _278  and  _280
REMARK  123  A    between atoms: _280  and  _281
REMARK  124  A    between atoms: _280  and  _283
REMARK  125  A    between atoms: _283  and  _284
REMARK  126  A    between atoms: _286  and  _288
REMARK  127  A    between atoms: _288  and  _289
REMARK  128  A    between atoms: _288  and  _291
REMARK  129  A    between atoms: _291  and  _292
REMARK  130  A    between atoms: _297  and  _299
REMARK  131  A    between atoms: _299  and  _300
REMARK  132  A    between atoms: _299  and  _302
REMARK  133  A    between atoms: _302  and  _303
REMARK  134  A    between atoms: _306  and  _308
REMARK  135  A    between atoms: _308  and  _309
REMARK  136  A    between atoms: _312  and  _314
REMARK  137  A    between atoms: _314  and  _315
REMARK  138  A    between atoms: _318  and  _320
REMARK  139  A    between atoms: _320  and  _321
REMARK  140  A    between atoms: _320  and  _323
REMARK  141  A    between atoms: _323  and  _324
REMARK  142  A    between atoms: _324  and  _325
REMARK  143  A    between atoms: _325  and  _326
REMARK  144  A    between atoms: _335  and  _337
REMARK  145  A    between atoms: _337  and  _338
REMARK  146  A    between atoms: _337  and  _340
REMARK  147  A    between atoms: _340  and  _341
REMARK  148  A    between atoms: _346  and  _348
REMARK  149  A    between atoms: _348  and  _349
REMARK  150  A    between atoms: _348  and  _351
REMARK  151  A    between atoms: _354  and  _356
REMARK  152  A    between atoms: _356  and  _357
REMARK  153  A    between atoms: _356  and  _359
REMARK  154  A    between atoms: _359  and  _360
REMARK  155  A    between atoms: _363  and  _365
REMARK  156  A    between atoms: _365  and  _366
REMARK  157  A    between atoms: _365  and  _368
REMARK  158  A    between atoms: _371  and  _373
REMARK  159  A    between atoms: _373  and  _374
REMARK  160  A    between atoms: _373  and  _376
REMARK  161  A    between atoms: _376  and  _377
REMARK  162  A    between atoms: _379  and  _381
REMARK  163  A    between atoms: _381  and  _382
REMARK  164  A    between atoms: _381  and  _384
REMARK  165  A    between atoms: _384  and  _385
REMARK  166  A    between atoms: _385  and  _386
REMARK  167  A    between atoms: _386  and  _387
REMARK  168  A    between atoms: _387  and  _388
REMARK  169  A    between atoms: _392  and  _394
REMARK  170  A    between atoms: _394  and  _395
REMARK  171  A    between atoms: _394  and  _397
REMARK  172  A    between atoms: _397  and  _398
REMARK  173  A    between atoms: _401  and  _403
REMARK  174  A    between atoms: _403  and  _404
REMARK  175  A    between atoms: _406  and  _408
REMARK  176  A    between atoms: _408  and  _409
REMARK  177  A    between atoms: _408  and  _411
REMARK  178  A    between atoms: _411  and  _412
REMARK  179  A    between atoms: _415  and  _417
REMARK  180  A    between atoms: _417  and  _418
REMARK  181  A    between atoms: _417  and  _420
REMARK  182  A    between atoms: _420  and  _421
REMARK  183  A    between atoms: _427  and  _429
REMARK  184  A    between atoms: _429  and  _430
REMARK  185  A    between atoms: _432  and  _434
REMARK  186  A    between atoms: _434  and  _435
REMARK  187  A    between atoms: _434  and  _437
REMARK  188  A    between atoms: _437  and  _438
REMARK  189  A    between atoms: _441  and  _443
REMARK  190  A    between atoms: _443  and  _444
REMARK  191  A    between atoms: _443  and  _446
REMARK  192  A    between atoms: _446  and  _447
REMARK  193  A    between atoms: _449  and  _451
REMARK  194  A    between atoms: _451  and  _452
REMARK  195  A    between atoms: _451  and  _454
REMARK  196  A    between atoms: _454  and  _455
REMARK  197  A    between atoms: _455  and  _456
REMARK  198  A    between atoms: _456  and  _457
REMARK  199  A    between atoms: _466  and  _468
REMARK  200  A    between atoms: _468  and  _469
REMARK  201  A    between atoms: _468  and  _471
REMARK  202  A    between atoms: _471  and  _472
REMARK  203  A    between atoms: _477  and  _478
REMARK  204  A    between atoms: _480  and  _482
REMARK  205  A    between atoms: _482  and  _483
REMARK  206  A    between atoms: _482  and  _485
REMARK  207  A    between atoms: _485  and  _486
REMARK  208  A    between atoms: _486  and  _487
REMARK                            x       y       z     vdW  Elec       q    Type
REMARK                         _______ _______ _______ _____ _____    ______ ____
ROOT
ATOM      1  O   HOH     1      22.451 -13.967 -44.651  0.00  0.00    +0.000 OA
ENDROOT
TORSDOF 0
REMARK  Name = ../refined-set-2016/4gu6/4gu6_pocket.pdb
REMARK  208 active torsions:
REMARK  status: ('A' for Active; 'I' for Inactive)
REMARK    1  A    between atoms: _1  and  _3
REMARK    2  A    between atoms: _3  and  _4
REMARK    3  A    between atoms: _3  and  _6
REMARK    4  A    between atoms: _8  and  _10
REMARK    5  A    between atoms: _10  and  _11
REMARK    6  A    between atoms: _10  and  _13
REMARK    7  A    between atoms: _13  and  _14
REMARK    8  A    between atoms: _17  and  _19
REMARK    9  A    between atoms: _19  and  _20
REMARK   10  A    between atoms: _22  and  _24
REMARK   11  A    between atoms: _24  and  _25
REMARK   12  A    between atoms: _24  and  _27
REMARK   13  A    between atoms: _27  and  _28
REMARK   14  A    between atoms: _28  and  _29
REMARK   15  A    between atoms: _32  and  _34
REMARK   16  A    between atoms: _34  and  _35
REMARK   17  A    between atoms: _37  and  _39
REMARK   18  A    between atoms: _39  and  _40
REMARK   19  A    between atoms: _39  and  _42
REMARK   20  A    between atoms: _42  and  _43
REMARK   21  A    between atoms: _43  and  _44
REMARK   22  A    between atoms: _49  and  _51
REMARK   23  A    between atoms: _51  and  _52
REMARK   24  A    between atoms: _54  and  _56
REMARK   25  A    between atoms: _56  and  _57
REMARK   26  A    between atoms: _56  and  _59
REMARK   27  A    between atoms: _59  and  _60
REMARK   28  A    between atoms: _63  and  _65
REMARK   29  A    between atoms: _65  and  _66
REMARK   30  A    between atoms: _65  and  _68
REMARK   31  A    between atoms: _71  and  _73
REMARK   32  A    between atoms: _73  and  _74
REMARK   33  A    between atoms: _73  and  _76
REMARK   34  A    between atoms: _76  and  _77
REMARK   35  A    between atoms: _82  and  _84
REMARK   36  A    between atoms: _84  and  _85
REMARK   37  A    between atoms: _84  and  _87
REMARK   38  A    between atoms: _87  and  _88
REMARK   39  A    between atoms: _88  and  _89
REMARK   40  A    between atoms: _94  and  _96
REMARK   41  A    between atoms: _96  and  _97
REMARK   42  A    between atoms: _100  and  _102
REMARK   43  A    between atoms: _102  and  _103
REMARK   44  A    between atoms: _102  and  _105
REMARK   45  A    between atoms: _108  and  _110
REMARK   46  A    between atoms: _110  and  _111
REMARK   47  A    between atoms: _114  and  _116
REMARK   48  A    between atoms: _116  and  _117
REMARK   49  A    between atoms: _116  and  _119
REMARK   50  A    between atoms: _119  and  _120
REMARK   51  A    between atoms: _123  and  _125
REMARK   52  A    between atoms: _125  and  _126
REMARK   53  A    between atoms: _125  and  _128
REMARK   54  A    between atoms: _128  and  _129
REMARK   55  A    between atoms: _129  and  _130
REMARK   56  A    between atoms: _130  and  _131
REMARK   57  A    between atoms: _131  and  _132
REMARK   58  A    between atoms: _136  and  _138
REMARK   59  A    between atoms: _138  and  _139
REMARK   60  A    between atoms: _138  and  _141
REMARK   61  A    between atoms: _141  and  _142
REMARK   62  A    between atoms: _142  and  _143
REMARK   63  A    between atoms: _145  and  _147
REMARK   64  A    between atoms: _147  and  _148
REMARK   65  A    between atoms: _147  and  _150
REMARK   66  A    between atoms: _153  and  _155
REMARK   67  A    between atoms: _155  and  _156
REMARK   68  A    between atoms: _155  and  _158
REMARK   69  A    between atoms: _158  and  _159
REMARK   70  A    between atoms: _159  and  _160
REMARK   71  A    between atoms: _160  and  _161
REMARK   72  A    between atoms: _161  and  _162
REMARK   73  A    between atoms: _166  and  _168
REMARK   74  A    between atoms: _168  and  _169
REMARK   75  A    between atoms: _168  and  _171
REMARK   76  A    between atoms: _171  and  _172
REMARK   77  A    between atoms: _175  and  _177
REMARK   78  A    between atoms: _177  and  _178
REMARK   79  A    between atoms: _177  and  _180
REMARK   80  A    between atoms: _180  and  _181
REMARK   81  A    between atoms: _184  and  _186
REMARK   82  A    between atoms: _186  and  _187
REMARK   83  A    between atoms: _186  and  _189
REMARK   84  A    between atoms: _189  and  _190
REMARK   85  A    between atoms: _190  and  _191
REMARK   86  A    between atoms: _193  and  _195
REMARK   87  A    between atoms: _195  and  _196
REMARK   88  A    between atoms: _195  and  _198
REMARK   89  A    between atoms: _199  and  _200
REMARK   90  A    between atoms: _203  and  _205
REMARK   91  A    between atoms: _205  and  _206
REMARK   92  A    between atoms: _205  and  _208
REMARK   93  A    between atoms: _208  and  _209
REMARK   94  A    between atoms: _212  and  _214
REMARK   95  A    between atoms: _214  and  _215
REMARK   96  A    between atoms: _214  and  _217
REMARK   97  A    between atoms: _219  and  _221
REMARK   98  A    between atoms: _221  and  _222
REMARK   99  A    between atoms: _221  and  _224
REMARK  100  A    between atoms: _224  and  _225
REMARK  101  A    between atoms: _228  and  _230
REMARK  102  A    between atoms: _230  and  _231
REMARK  103  A    between atoms: _230  and  _233
REMARK  104  A    between atoms: _233  and  _234
REMARK  105  A    between atoms: _237  and  _239
REMARK  106  A    between atoms: _239  and  _240
REMARK  107  A    between atoms: _242  and  _244
REMARK  108  A    between atoms: _244  and  _245
REMARK  109  A    between atoms: _244  and  _247
REMARK  110  A    between atoms: _247  and  _248
REMARK  111  A    between atoms: _248  and  _249
REMARK  112  A    between atoms: _252  and  _254
REMARK  113  A    between atoms: _254  and  _255
REMARK  114  A    between atoms: _254  and  _257
REMARK  115  A    between atoms: _257  and  _258
REMARK  116  A    between atoms: _261  and  _263
REMARK  117  A    between atoms: _263  and  _264
REMARK  118  A    between atoms: _263  and  _266
REMARK  119  A    between atoms: _266  and  _267
REMARK  120  A    between atoms: _267  and  _268
REMARK  121  A    between atoms: _268  and  _269
REMARK  122  A    between atoms: _278  and  _280
REMARK  123  A    between atoms: _280  and  _281
REMARK  124  A    between atoms: _280  and  _283
REMARK  125  A    between atoms: _283  and  _284
REMARK  126  A    between atoms: _286  and  _288
REMARK  127  A    between atoms: _288  and  _289
REMARK  128  A    between atoms: _288  and  _291
REMARK  129  A    between atoms: _291  and  _292
REMARK  130  A    between atoms: _297  and  _299
REMARK  131  A    between atoms: _299  and  _300
REMARK  132  A    between atoms: _299  and  _302
REMARK  133  A    between atoms: _302  and  _303
REMARK  134  A    between atoms: _306  and  _308
REMARK  135  A    between atoms: _308  and  _309
REMARK  136  A    between atoms: _312  and  _314
REMARK  137  A    between atoms: _314  and  _315
REMARK  138  A    between atoms: _318  and  _320
REMARK  139  A    between atoms: _320  and  _321
REMARK  140  A    between atoms: _320  and  _323
REMARK  141  A    between atoms: _323  and  _324
REMARK  142  A    between atoms: _324  and  _325
REMARK  143  A    between atoms: _325  and  _326
REMARK  144  A    between atoms: _335  and  _337
REMARK  145  A    between atoms: _337  and  _338
REMARK  146  A    between atoms: _337  and  _340
REMARK  147  A    between atoms: _340  and  _341
REMARK  148  A    between atoms: _346  and  _348
REMARK  149  A    between atoms: _348  and  _349
REMARK  150  A    between atoms: _348  and  _351
REMARK  151  A    between atoms: _354  and  _356
REMARK  152  A    between atoms: _356  and  _357
REMARK  153  A    between atoms: _356  and  _359
REMARK  154  A    between atoms: _359  and  _360
REMARK  155  A    between atoms: _363  and  _365
REMARK  156  A    between atoms: _365  and  _366
REMARK  157  A    between atoms: _365  and  _368
REMARK  158  A    between atoms: _371  and  _373
REMARK  159  A    between atoms: _373  and  _374
REMARK  160  A    between atoms: _373  and  _376
REMARK  161  A    between atoms: _376  and  _377
REMARK  162  A    between atoms: _379  and  _381
REMARK  163  A    between atoms: _381  and  _382
REMARK  164  A    between atoms: _381  and  _384
REMARK  165  A    between atoms: _384  and  _385
REMARK  166  A    between atoms: _385  and  _386
REMARK  167  A    between atoms: _386  and  _387
REMARK  168  A    between atoms: _387  and  _388
REMARK  169  A    between atoms: _392  and  _394
REMARK  170  A    between atoms: _394  and  _395
REMARK  171  A    between atoms: _394  and  _397
REMARK  172  A    between atoms: _397  and  _398
REMARK  173  A    between atoms: _401  and  _403
REMARK  174  A    between atoms: _403  and  _404
REMARK  175  A    between atoms: _406  and  _408
REMARK  176  A    between atoms: _408  and  _409
REMARK  177  A    between atoms: _408  and  _411
REMARK  178  A    between atoms: _411  and  _412
REMARK  179  A    between atoms: _415  and  _417
REMARK  180  A    between atoms: _417  and  _418
REMARK  181  A    between atoms: _417  and  _420
REMARK  182  A    between atoms: _420  and  _421
REMARK  183  A    between atoms: _427  and  _429
REMARK  184  A    between atoms: _429  and  _430
REMARK  185  A    between atoms: _432  and  _434
REMARK  186  A    between atoms: _434  and  _435
REMARK  187  A    between atoms: _434  and  _437
REMARK  188  A    between atoms: _437  and  _438
REMARK  189  A    between atoms: _441  and  _443
REMARK  190  A    between atoms: _443  and  _444
REMARK  191  A    between atoms: _443  and  _446
REMARK  192  A    between atoms: _446  and  _447
REMARK  193  A    between atoms: _449  and  _451
REMARK  194  A    between atoms: _451  and  _452
REMARK  195  A    between atoms: _451  and  _454
REMARK  196  A    between atoms: _454  and  _455
REMARK  197  A    between atoms: _455  and  _456
REMARK  198  A    between atoms: _456  and  _457
REMARK  199  A    between atoms: _466  and  _468
REMARK  200  A    between atoms: _468  and  _469
REMARK  201  A    between atoms: _468  and  _471
REMARK  202  A    between atoms: _471  and  _472
REMARK  203  A    between atoms: _477  and  _478
REMARK  204  A    between atoms: _480  and  _482
REMARK  205  A    between atoms: _482  and  _483
REMARK  206  A    between atoms: _482  and  _485
REMARK  207  A    between atoms: _485  and  _486
REMARK  208  A    between atoms: _486  and  _487
REMARK                            x       y       z     vdW  Elec       q    Type
REMARK                         _______ _______ _______ _____ _____    ______ ____
ROOT
ATOM      1  O   HOH     1      15.808  -5.480 -49.087  0.00  0.00    +0.000 OA
ENDROOT
TORSDOF 0
REMARK  Name = ../refined-set-2016/4gu6/4gu6_pocket.pdb
REMARK  208 active torsions:
REMARK  status: ('A' for Active; 'I' for Inactive)
REMARK    1  A    between atoms: _1  and  _3
REMARK    2  A    between atoms: _3  and  _4
REMARK    3  A    between atoms: _3  and  _6
REMARK    4  A    between atoms: _8  and  _10
REMARK    5  A    between atoms: _10  and  _11
REMARK    6  A    between atoms: _10  and  _13
REMARK    7  A    between atoms: _13  and  _14
REMARK    8  A    between atoms: _17  and  _19
REMARK    9  A    between atoms: _19  and  _20
REMARK   10  A    between atoms: _22  and  _24
REMARK   11  A    between atoms: _24  and  _25
REMARK   12  A    between atoms: _24  and  _27
REMARK   13  A    between atoms: _27  and  _28
REMARK   14  A    between atoms: _28  and  _29
REMARK   15  A    between atoms: _32  and  _34
REMARK   16  A    between atoms: _34  and  _35
REMARK   17  A    between atoms: _37  and  _39
REMARK   18  A    between atoms: _39  and  _40
REMARK   19  A    between atoms: _39  and  _42
REMARK   20  A    between atoms: _42  and  _43
REMARK   21  A    between atoms: _43  and  _44
REMARK   22  A    between atoms: _49  and  _51
REMARK   23  A    between atoms: _51  and  _52
REMARK   24  A    between atoms: _54  and  _56
REMARK   25  A    between atoms: _56  and  _57
REMARK   26  A    between atoms: _56  and  _59
REMARK   27  A    between atoms: _59  and  _60
REMARK   28  A    between atoms: _63  and  _65
REMARK   29  A    between atoms: _65  and  _66
REMARK   30  A    between atoms: _65  and  _68
REMARK   31  A    between atoms: _71  and  _73
REMARK   32  A    between atoms: _73  and  _74
REMARK   33  A    between atoms: _73  and  _76
REMARK   34  A    between atoms: _76  and  _77
REMARK   35  A    between atoms: _82  and  _84
REMARK   36  A    between atoms: _84  and  _85
REMARK   37  A    between atoms: _84  and  _87
REMARK   38  A    between atoms: _87  and  _88
REMARK   39  A    between atoms: _88  and  _89
REMARK   40  A    between atoms: _94  and  _96
REMARK   41  A    between atoms: _96  and  _97
REMARK   42  A    between atoms: _100  and  _102
REMARK   43  A    between atoms: _102  and  _103
REMARK   44  A    between atoms: _102  and  _105
REMARK   45  A    between atoms: _108  and  _110
REMARK   46  A    between atoms: _110  and  _111
REMARK   47  A    between atoms: _114  and  _116
REMARK   48  A    between atoms: _116  and  _117
REMARK   49  A    between atoms: _116  and  _119
REMARK   50  A    between atoms: _119  and  _120
REMARK   51  A    between atoms: _123  and  _125
REMARK   52  A    between atoms: _125  and  _126
REMARK   53  A    between atoms: _125  and  _128
REMARK   54  A    between atoms: _128  and  _129
REMARK   55  A    between atoms: _129  and  _130
REMARK   56  A    between atoms: _130  and  _131
REMARK   57  A    between atoms: _131  and  _132
REMARK   58  A    between atoms: _136  and  _138
REMARK   59  A    between atoms: _138  and  _139
REMARK   60  A    between atoms: _138  and  _141
REMARK   61  A    between atoms: _141  and  _142
REMARK   62  A    between atoms: _142  and  _143
REMARK   63  A    between atoms: _145  and  _147
REMARK   64  A    between atoms: _147  and  _148
REMARK   65  A    between atoms: _147  and  _150
REMARK   66  A    between atoms: _153  and  _155
REMARK   67  A    between atoms: _155  and  _156
REMARK   68  A    between atoms: _155  and  _158
REMARK   69  A    between atoms: _158  and  _159
REMARK   70  A    between atoms: _159  and  _160
REMARK   71  A    between atoms: _160  and  _161
REMARK   72  A    between atoms: _161  and  _162
REMARK   73  A    between atoms: _166  and  _168
REMARK   74  A    between atoms: _168  and  _169
REMARK   75  A    between atoms: _168  and  _171
REMARK   76  A    between atoms: _171  and  _172
REMARK   77  A    between atoms: _175  and  _177
REMARK   78  A    between atoms: _177  and  _178
REMARK   79  A    between atoms: _177  and  _180
REMARK   80  A    between atoms: _180  and  _181
REMARK   81  A    between atoms: _184  and  _186
REMARK   82  A    between atoms: _186  and  _187
REMARK   83  A    between atoms: _186  and  _189
REMARK   84  A    between atoms: _189  and  _190
REMARK   85  A    between atoms: _190  and  _191
REMARK   86  A    between atoms: _193  and  _195
REMARK   87  A    between atoms: _195  and  _196
REMARK   88  A    between atoms: _195  and  _198
REMARK   89  A    between atoms: _199  and  _200
REMARK   90  A    between atoms: _203  and  _205
REMARK   91  A    between atoms: _205  and  _206
REMARK   92  A    between atoms: _205  and  _208
REMARK   93  A    between atoms: _208  and  _209
REMARK   94  A    between atoms: _212  and  _214
REMARK   95  A    between atoms: _214  and  _215
REMARK   96  A    between atoms: _214  and  _217
REMARK   97  A    between atoms: _219  and  _221
REMARK   98  A    between atoms: _221  and  _222
REMARK   99  A    between atoms: _221  and  _224
REMARK  100  A    between atoms: _224  and  _225
REMARK  101  A    between atoms: _228  and  _230
REMARK  102  A    between atoms: _230  and  _231
REMARK  103  A    between atoms: _230  and  _233
REMARK  104  A    between atoms: _233  and  _234
REMARK  105  A    between atoms: _237  and  _239
REMARK  106  A    between atoms: _239  and  _240
REMARK  107  A    between atoms: _242  and  _244
REMARK  108  A    between atoms: _244  and  _245
REMARK  109  A    between atoms: _244  and  _247
REMARK  110  A    between atoms: _247  and  _248
REMARK  111  A    between atoms: _248  and  _249
REMARK  112  A    between atoms: _252  and  _254
REMARK  113  A    between atoms: _254  and  _255
REMARK  114  A    between atoms: _254  and  _257
REMARK  115  A    between atoms: _257  and  _258
REMARK  116  A    between atoms: _261  and  _263
REMARK  117  A    between atoms: _263  and  _264
REMARK  118  A    between atoms: _263  and  _266
REMARK  119  A    between atoms: _266  and  _267
REMARK  120  A    between atoms: _267  and  _268
REMARK  121  A    between atoms: _268  and  _269
REMARK  122  A    between atoms: _278  and  _280
REMARK  123  A    between atoms: _280  and  _281
REMARK  124  A    between atoms: _280  and  _283
REMARK  125  A    between atoms: _283  and  _284
REMARK  126  A    between atoms: _286  and  _288
REMARK  127  A    between atoms: _288  and  _289
REMARK  128  A    between atoms: _288  and  _291
REMARK  129  A    between atoms: _291  and  _292
REMARK  130  A    between atoms: _297  and  _299
REMARK  131  A    between atoms: _299  and  _300
REMARK  132  A    between atoms: _299  and  _302
REMARK  133  A    between atoms: _302  and  _303
REMARK  134  A    between atoms: _306  and  _308
REMARK  135  A    between atoms: _308  and  _309
REMARK  136  A    between atoms: _312  and  _314
REMARK  137  A    between atoms: _314  and  _315
REMARK  138  A    between atoms: _318  and  _320
REMARK  139  A    between atoms: _320  and  _321
REMARK  140  A    between atoms: _320  and  _323
REMARK  141  A    between atoms: _323  and  _324
REMARK  142  A    between atoms: _324  and  _325
REMARK  143  A    between atoms: _325  and  _326
REMARK  144  A    between atoms: _335  and  _337
REMARK  145  A    between atoms: _337  and  _338
REMARK  146  A    between atoms: _337  and  _340
REMARK  147  A    between atoms: _340  and  _341
REMARK  148  A    between atoms: _346  and  _348
REMARK  149  A    between atoms: _348  and  _349
REMARK  150  A    between atoms: _348  and  _351
REMARK  151  A    between atoms: _354  and  _356
REMARK  152  A    between atoms: _356  and  _357
REMARK  153  A    between atoms: _356  and  _359
REMARK  154  A    between atoms: _359  and  _360
REMARK  155  A    between atoms: _363  and  _365
REMARK  156  A    between atoms: _365  and  _366
REMARK  157  A    between atoms: _365  and  _368
REMARK  158  A    between atoms: _371  and  _373
REMARK  159  A    between atoms: _373  and  _374
REMARK  160  A    between atoms: _373  and  _376
REMARK  161  A    between atoms: _376  and  _377
REMARK  162  A    between atoms: _379  and  _381
REMARK  163  A    between atoms: _381  and  _382
REMARK  164  A    between atoms: _381  and  _384
REMARK  165  A    between atoms: _384  and  _385
REMARK  166  A    between atoms: _385  and  _386
REMARK  167  A    between atoms: _386  and  _387
REMARK  168  A    between atoms: _387  and  _388
REMARK  169  A    between atoms: _392  and  _394
REMARK  170  A    between atoms: _394  and  _395
REMARK  171  A    between atoms: _394  and  _397
REMARK  172  A    between atoms: _397  and  _398
REMARK  173  A    between atoms: _401  and  _403
REMARK  174  A    between atoms: _403  and  _404
REMARK  175  A    between atoms: _406  and  _408
REMARK  176  A    between atoms: _408  and  _409
REMARK  177  A    between atoms: _408  and  _411
REMARK  178  A    between atoms: _411  and  _412
REMARK  179  A    between atoms: _415  and  _417
REMARK  180  A    between atoms: _417  and  _418
REMARK  181  A    between atoms: _417  and  _420
REMARK  182  A    between atoms: _420  and  _421
REMARK  183  A    between atoms: _427  and  _429
REMARK  184  A    between atoms: _429  and  _430
REMARK  185  A    between atoms: _432  and  _434
REMARK  186  A    between atoms: _434  and  _435
REMARK  187  A    between atoms: _434  and  _437
REMARK  188  A    between atoms: _437  and  _438
REMARK  189  A    between atoms: _441  and  _443
REMARK  190  A    between atoms: _443  and  _444
REMARK  191  A    between atoms: _443  and  _446
REMARK  192  A    between atoms: _446  and  _447
REMARK  193  A    between atoms: _449  and  _451
REMARK  194  A    between atoms: _451  and  _452
REMARK  195  A    between atoms: _451  and  _454
REMARK  196  A    between atoms: _454  and  _455
REMARK  197  A    between atoms: _455  and  _456
REMARK  198  A    between atoms: _456  and  _457
REMARK  199  A    between atoms: _466  and  _468
REMARK  200  A    between atoms: _468  and  _469
REMARK  201  A    between atoms: _468  and  _471
REMARK  202  A    between atoms: _471  and  _472
REMARK  203  A    between atoms: _477  and  _478
REMARK  204  A    between atoms: _480  and  _482
REMARK  205  A    between atoms: _482  and  _483
REMARK  206  A    between atoms: _482  and  _485
REMARK  207  A    between atoms: _485  and  _486
REMARK  208  A    between atoms: _486  and  _487
REMARK                            x       y       z     vdW  Elec       q    Type
REMARK                         _______ _______ _______ _____ _____    ______ ____
ROOT
ATOM      1  O   HOH     1      29.797  -9.046 -47.590  0.00  0.00    +0.000 OA
ENDROOT
TORSDOF 0
REMARK  Name = ../refined-set-2016/4gu6/4gu6_pocket.pdb
REMARK  208 active torsions:
REMARK  status: ('A' for Active; 'I' for Inactive)
REMARK    1  A    between atoms: _1  and  _3
REMARK    2  A    between atoms: _3  and  _4
REMARK    3  A    between atoms: _3  and  _6
REMARK    4  A    between atoms: _8  and  _10
REMARK    5  A    between atoms: _10  and  _11
REMARK    6  A    between atoms: _10  and  _13
REMARK    7  A    between atoms: _13  and  _14
REMARK    8  A    between atoms: _17  and  _19
REMARK    9  A    between atoms: _19  and  _20
REMARK   10  A    between atoms: _22  and  _24
REMARK   11  A    between atoms: _24  and  _25
REMARK   12  A    between atoms: _24  and  _27
REMARK   13  A    between atoms: _27  and  _28
REMARK   14  A    between atoms: _28  and  _29
REMARK   15  A    between atoms: _32  and  _34
REMARK   16  A    between atoms: _34  and  _35
REMARK   17  A    between atoms: _37  and  _39
REMARK   18  A    between atoms: _39  and  _40
REMARK   19  A    between atoms: _39  and  _42
REMARK   20  A    between atoms: _42  and  _43
REMARK   21  A    between atoms: _43  and  _44
REMARK   22  A    between atoms: _49  and  _51
REMARK   23  A    between atoms: _51  and  _52
REMARK   24  A    between atoms: _54  and  _56
REMARK   25  A    between atoms: _56  and  _57
REMARK   26  A    between atoms: _56  and  _59
REMARK   27  A    between atoms: _59  and  _60
REMARK   28  A    between atoms: _63  and  _65
REMARK   29  A    between atoms: _65  and  _66
REMARK   30  A    between atoms: _65  and  _68
REMARK   31  A    between atoms: _71  and  _73
REMARK   32  A    between atoms: _73  and  _74
REMARK   33  A    between atoms: _73  and  _76
REMARK   34  A    between atoms: _76  and  _77
REMARK   35  A    between atoms: _82  and  _84
REMARK   36  A    between atoms: _84  and  _85
REMARK   37  A    between atoms: _84  and  _87
REMARK   38  A    between atoms: _87  and  _88
REMARK   39  A    between atoms: _88  and  _89
REMARK   40  A    between atoms: _94  and  _96
REMARK   41  A    between atoms: _96  and  _97
REMARK   42  A    between atoms: _100  and  _102
REMARK   43  A    between atoms: _102  and  _103
REMARK   44  A    between atoms: _102  and  _105
REMARK   45  A    between atoms: _108  and  _110
REMARK   46  A    between atoms: _110  and  _111
REMARK   47  A    between atoms: _114  and  _116
REMARK   48  A    between atoms: _116  and  _117
REMARK   49  A    between atoms: _116  and  _119
REMARK   50  A    between atoms: _119  and  _120
REMARK   51  A    between atoms: _123  and  _125
REMARK   52  A    between atoms: _125  and  _126
REMARK   53  A    between atoms: _125  and  _128
REMARK   54  A    between atoms: _128  and  _129
REMARK   55  A    between atoms: _129  and  _130
REMARK   56  A    between atoms: _130  and  _131
REMARK   57  A    between atoms: _131  and  _132
REMARK   58  A    between atoms: _136  and  _138
REMARK   59  A    between atoms: _138  and  _139
REMARK   60  A    between atoms: _138  and  _141
REMARK   61  A    between atoms: _141  and  _142
REMARK   62  A    between atoms: _142  and  _143
REMARK   63  A    between atoms: _145  and  _147
REMARK   64  A    between atoms: _147  and  _148
REMARK   65  A    between atoms: _147  and  _150
REMARK   66  A    between atoms: _153  and  _155
REMARK   67  A    between atoms: _155  and  _156
REMARK   68  A    between atoms: _155  and  _158
REMARK   69  A    between atoms: _158  and  _159
REMARK   70  A    between atoms: _159  and  _160
REMARK   71  A    between atoms: _160  and  _161
REMARK   72  A    between atoms: _161  and  _162
REMARK   73  A    between atoms: _166  and  _168
REMARK   74  A    between atoms: _168  and  _169
REMARK   75  A    between atoms: _168  and  _171
REMARK   76  A    between atoms: _171  and  _172
REMARK   77  A    between atoms: _175  and  _177
REMARK   78  A    between atoms: _177  and  _178
REMARK   79  A    between atoms: _177  and  _180
REMARK   80  A    between atoms: _180  and  _181
REMARK   81  A    between atoms: _184  and  _186
REMARK   82  A    between atoms: _186  and  _187
REMARK   83  A    between atoms: _186  and  _189
REMARK   84  A    between atoms: _189  and  _190
REMARK   85  A    between atoms: _190  and  _191
REMARK   86  A    between atoms: _193  and  _195
REMARK   87  A    between atoms: _195  and  _196
REMARK   88  A    between atoms: _195  and  _198
REMARK   89  A    between atoms: _199  and  _200
REMARK   90  A    between atoms: _203  and  _205
REMARK   91  A    between atoms: _205  and  _206
REMARK   92  A    between atoms: _205  and  _208
REMARK   93  A    between atoms: _208  and  _209
REMARK   94  A    between atoms: _212  and  _214
REMARK   95  A    between atoms: _214  and  _215
REMARK   96  A    between atoms: _214  and  _217
REMARK   97  A    between atoms: _219  and  _221
REMARK   98  A    between atoms: _221  and  _222
REMARK   99  A    between atoms: _221  and  _224
REMARK  100  A    between atoms: _224  and  _225
REMARK  101  A    between atoms: _228  and  _230
REMARK  102  A    between atoms: _230  and  _231
REMARK  103  A    between atoms: _230  and  _233
REMARK  104  A    between atoms: _233  and  _234
REMARK  105  A    between atoms: _237  and  _239
REMARK  106  A    between atoms: _239  and  _240
REMARK  107  A    between atoms: _242  and  _244
REMARK  108  A    between atoms: _244  and  _245
REMARK  109  A    between atoms: _244  and  _247
REMARK  110  A    between atoms: _247  and  _248
REMARK  111  A    between atoms: _248  and  _249
REMARK  112  A    between atoms: _252  and  _254
REMARK  113  A    between atoms: _254  and  _255
REMARK  114  A    between atoms: _254  and  _257
REMARK  115  A    between atoms: _257  and  _258
REMARK  116  A    between atoms: _261  and  _263
REMARK  117  A    between atoms: _263  and  _264
REMARK  118  A    between atoms: _263  and  _266
REMARK  119  A    between atoms: _266  and  _267
REMARK  120  A    between atoms: _267  and  _268
REMARK  121  A    between atoms: _268  and  _269
REMARK  122  A    between atoms: _278  and  _280
REMARK  123  A    between atoms: _280  and  _281
REMARK  124  A    between atoms: _280  and  _283
REMARK  125  A    between atoms: _283  and  _284
REMARK  126  A    between atoms: _286  and  _288
REMARK  127  A    between atoms: _288  and  _289
REMARK  128  A    between atoms: _288  and  _291
REMARK  129  A    between atoms: _291  and  _292
REMARK  130  A    between atoms: _297  and  _299
REMARK  131  A    between atoms: _299  and  _300
REMARK  132  A    between atoms: _299  and  _302
REMARK  133  A    between atoms: _302  and  _303
REMARK  134  A    between atoms: _306  and  _308
REMARK  135  A    between atoms: _308  and  _309
REMARK  136  A    between atoms: _312  and  _314
REMARK  137  A    between atoms: _314  and  _315
REMARK  138  A    between atoms: _318  and  _320
REMARK  139  A    between atoms: _320  and  _321
REMARK  140  A    between atoms: _320  and  _323
REMARK  141  A    between atoms: _323  and  _324
REMARK  142  A    between atoms: _324  and  _325
REMARK  143  A    between atoms: _325  and  _326
REMARK  144  A    between atoms: _335  and  _337
REMARK  145  A    between atoms: _337  and  _338
REMARK  146  A    between atoms: _337  and  _340
REMARK  147  A    between atoms: _340  and  _341
REMARK  148  A    between atoms: _346  and  _348
REMARK  149  A    between atoms: _348  and  _349
REMARK  150  A    between atoms: _348  and  _351
REMARK  151  A    between atoms: _354  and  _356
REMARK  152  A    between atoms: _356  and  _357
REMARK  153  A    between atoms: _356  and  _359
REMARK  154  A    between atoms: _359  and  _360
REMARK  155  A    between atoms: _363  and  _365
REMARK  156  A    between atoms: _365  and  _366
REMARK  157  A    between atoms: _365  and  _368
REMARK  158  A    between atoms: _371  and  _373
REMARK  159  A    between atoms: _373  and  _374
REMARK  160  A    between atoms: _373  and  _376
REMARK  161  A    between atoms: _376  and  _377
REMARK  162  A    between atoms: _379  and  _381
REMARK  163  A    between atoms: _381  and  _382
REMARK  164  A    between atoms: _381  and  _384
REMARK  165  A    between atoms: _384  and  _385
REMARK  166  A    between atoms: _385  and  _386
REMARK  167  A    between atoms: _386  and  _387
REMARK  168  A    between atoms: _387  and  _388
REMARK  169  A    between atoms: _392  and  _394
REMARK  170  A    between atoms: _394  and  _395
REMARK  171  A    between atoms: _394  and  _397
REMARK  172  A    between atoms: _397  and  _398
REMARK  173  A    between atoms: _401  and  _403
REMARK  174  A    between atoms: _403  and  _404
REMARK  175  A    between atoms: _406  and  _408
REMARK  176  A    between atoms: _408  and  _409
REMARK  177  A    between atoms: _408  and  _411
REMARK  178  A    between atoms: _411  and  _412
REMARK  179  A    between atoms: _415  and  _417
REMARK  180  A    between atoms: _417  and  _418
REMARK  181  A    between atoms: _417  and  _420
REMARK  182  A    between atoms: _420  and  _421
REMARK  183  A    between atoms: _427  and  _429
REMARK  184  A    between atoms: _429  and  _430
REMARK  185  A    between atoms: _432  and  _434
REMARK  186  A    between atoms: _434  and  _435
REMARK  187  A    between atoms: _434  and  _437
REMARK  188  A    between atoms: _437  and  _438
REMARK  189  A    between atoms: _441  and  _443
REMARK  190  A    between atoms: _443  and  _444
REMARK  191  A    between atoms: _443  and  _446
REMARK  192  A    between atoms: _446  and  _447
REMARK  193  A    between atoms: _449  and  _451
REMARK  194  A    between atoms: _451  and  _452
REMARK  195  A    between atoms: _451  and  _454
REMARK  196  A    between atoms: _454  and  _455
REMARK  197  A    between atoms: _455  and  _456
REMARK  198  A    between atoms: _456  and  _457
REMARK  199  A    between atoms: _466  and  _468
REMARK  200  A    between atoms: _468  and  _469
REMARK  201  A    between atoms: _468  and  _471
REMARK  202  A    between atoms: _471  and  _472
REMARK  203  A    between atoms: _477  and  _478
REMARK  204  A    between atoms: _480  and  _482
REMARK  205  A    between atoms: _482  and  _483
REMARK  206  A    between atoms: _482  and  _485
REMARK  207  A    between atoms: _485  and  _486
REMARK  208  A    between atoms: _486  and  _487
REMARK                            x       y       z     vdW  Elec       q    Type
REMARK                         _______ _______ _______ _____ _____    ______ ____
ROOT
ATOM      1  O   HOH     1      13.530 -13.534 -46.896  0.00  0.00    +0.000 OA
ENDROOT
TORSDOF 0
REMARK  Name = ../refined-set-2016/4gu6/4gu6_pocket.pdb
REMARK  208 active torsions:
REMARK  status: ('A' for Active; 'I' for Inactive)
REMARK    1  A    between atoms: _1  and  _3
REMARK    2  A    between atoms: _3  and  _4
REMARK    3  A    between atoms: _3  and  _6
REMARK    4  A    between atoms: _8  and  _10
REMARK    5  A    between atoms: _10  and  _11
REMARK    6  A    between atoms: _10  and  _13
REMARK    7  A    between atoms: _13  and  _14
REMARK    8  A    between atoms: _17  and  _19
REMARK    9  A    between atoms: _19  and  _20
REMARK   10  A    between atoms: _22  and  _24
REMARK   11  A    between atoms: _24  and  _25
REMARK   12  A    between atoms: _24  and  _27
REMARK   13  A    between atoms: _27  and  _28
REMARK   14  A    between atoms: _28  and  _29
REMARK   15  A    between atoms: _32  and  _34
REMARK   16  A    between atoms: _34  and  _35
REMARK   17  A    between atoms: _37  and  _39
REMARK   18  A    between atoms: _39  and  _40
REMARK   19  A    between atoms: _39  and  _42
REMARK   20  A    between atoms: _42  and  _43
REMARK   21  A    between atoms: _43  and  _44
REMARK   22  A    between atoms: _49  and  _51
REMARK   23  A    between atoms: _51  and  _52
REMARK   24  A    between atoms: _54  and  _56
REMARK   25  A    between atoms: _56  and  _57
REMARK   26  A    between atoms: _56  and  _59
REMARK   27  A    between atoms: _59  and  _60
REMARK   28  A    between atoms: _63  and  _65
REMARK   29  A    between atoms: _65  and  _66
REMARK   30  A    between atoms: _65  and  _68
REMARK   31  A    between atoms: _71  and  _73
REMARK   32  A    between atoms: _73  and  _74
REMARK   33  A    between atoms: _73  and  _76
REMARK   34  A    between atoms: _76  and  _77
REMARK   35  A    between atoms: _82  and  _84
REMARK   36  A    between atoms: _84  and  _85
REMARK   37  A    between atoms: _84  and  _87
REMARK   38  A    between atoms: _87  and  _88
REMARK   39  A    between atoms: _88  and  _89
REMARK   40  A    between atoms: _94  and  _96
REMARK   41  A    between atoms: _96  and  _97
REMARK   42  A    between atoms: _100  and  _102
REMARK   43  A    between atoms: _102  and  _103
REMARK   44  A    between atoms: _102  and  _105
REMARK   45  A    between atoms: _108  and  _110
REMARK   46  A    between atoms: _110  and  _111
REMARK   47  A    between atoms: _114  and  _116
REMARK   48  A    between atoms: _116  and  _117
REMARK   49  A    between atoms: _116  and  _119
REMARK   50  A    between atoms: _119  and  _120
REMARK   51  A    between atoms: _123  and  _125
REMARK   52  A    between atoms: _125  and  _126
REMARK   53  A    between atoms: _125  and  _128
REMARK   54  A    between atoms: _128  and  _129
REMARK   55  A    between atoms: _129  and  _130
REMARK   56  A    between atoms: _130  and  _131
REMARK   57  A    between atoms: _131  and  _132
REMARK   58  A    between atoms: _136  and  _138
REMARK   59  A    between atoms: _138  and  _139
REMARK   60  A    between atoms: _138  and  _141
REMARK   61  A    between atoms: _141  and  _142
REMARK   62  A    between atoms: _142  and  _143
REMARK   63  A    between atoms: _145  and  _147
REMARK   64  A    between atoms: _147  and  _148
REMARK   65  A    between atoms: _147  and  _150
REMARK   66  A    between atoms: _153  and  _155
REMARK   67  A    between atoms: _155  and  _156
REMARK   68  A    between atoms: _155  and  _158
REMARK   69  A    between atoms: _158  and  _159
REMARK   70  A    between atoms: _159  and  _160
REMARK   71  A    between atoms: _160  and  _161
REMARK   72  A    between atoms: _161  and  _162
REMARK   73  A    between atoms: _166  and  _168
REMARK   74  A    between atoms: _168  and  _169
REMARK   75  A    between atoms: _168  and  _171
REMARK   76  A    between atoms: _171  and  _172
REMARK   77  A    between atoms: _175  and  _177
REMARK   78  A    between atoms: _177  and  _178
REMARK   79  A    between atoms: _177  and  _180
REMARK   80  A    between atoms: _180  and  _181
REMARK   81  A    between atoms: _184  and  _186
REMARK   82  A    between atoms: _186  and  _187
REMARK   83  A    between atoms: _186  and  _189
REMARK   84  A    between atoms: _189  and  _190
REMARK   85  A    between atoms: _190  and  _191
REMARK   86  A    between atoms: _193  and  _195
REMARK   87  A    between atoms: _195  and  _196
REMARK   88  A    between atoms: _195  and  _198
REMARK   89  A    between atoms: _199  and  _200
REMARK   90  A    between atoms: _203  and  _205
REMARK   91  A    between atoms: _205  and  _206
REMARK   92  A    between atoms: _205  and  _208
REMARK   93  A    between atoms: _208  and  _209
REMARK   94  A    between atoms: _212  and  _214
REMARK   95  A    between atoms: _214  and  _215
REMARK   96  A    between atoms: _214  and  _217
REMARK   97  A    between atoms: _219  and  _221
REMARK   98  A    between atoms: _221  and  _222
REMARK   99  A    between atoms: _221  and  _224
REMARK  100  A    between atoms: _224  and  _225
REMARK  101  A    between atoms: _228  and  _230
REMARK  102  A    between atoms: _230  and  _231
REMARK  103  A    between atoms: _230  and  _233
REMARK  104  A    between atoms: _233  and  _234
REMARK  105  A    between atoms: _237  and  _239
REMARK  106  A    between atoms: _239  and  _240
REMARK  107  A    between atoms: _242  and  _244
REMARK  108  A    between atoms: _244  and  _245
REMARK  109  A    between atoms: _244  and  _247
REMARK  110  A    between atoms: _247  and  _248
REMARK  111  A    between atoms: _248  and  _249
REMARK  112  A    between atoms: _252  and  _254
REMARK  113  A    between atoms: _254  and  _255
REMARK  114  A    between atoms: _254  and  _257
REMARK  115  A    between atoms: _257  and  _258
REMARK  116  A    between atoms: _261  and  _263
REMARK  117  A    between atoms: _263  and  _264
REMARK  118  A    between atoms: _263  and  _266
REMARK  119  A    between atoms: _266  and  _267
REMARK  120  A    between atoms: _267  and  _268
REMARK  121  A    between atoms: _268  and  _269
REMARK  122  A    between atoms: _278  and  _280
REMARK  123  A    between atoms: _280  and  _281
REMARK  124  A    between atoms: _280  and  _283
REMARK  125  A    between atoms: _283  and  _284
REMARK  126  A    between atoms: _286  and  _288
REMARK  127  A    between atoms: _288  and  _289
REMARK  128  A    between atoms: _288  and  _291
REMARK  129  A    between atoms: _291  and  _292
REMARK  130  A    between atoms: _297  and  _299
REMARK  131  A    between atoms: _299  and  _300
REMARK  132  A    between atoms: _299  and  _302
REMARK  133  A    between atoms: _302  and  _303
REMARK  134  A    between atoms: _306  and  _308
REMARK  135  A    between atoms: _308  and  _309
REMARK  136  A    between atoms: _312  and  _314
REMARK  137  A    between atoms: _314  and  _315
REMARK  138  A    between atoms: _318  and  _320
REMARK  139  A    between atoms: _320  and  _321
REMARK  140  A    between atoms: _320  and  _323
REMARK  141  A    between atoms: _323  and  _324
REMARK  142  A    between atoms: _324  and  _325
REMARK  143  A    between atoms: _325  and  _326
REMARK  144  A    between atoms: _335  and  _337
REMARK  145  A    between atoms: _337  and  _338
REMARK  146  A    between atoms: _337  and  _340
REMARK  147  A    between atoms: _340  and  _341
REMARK  148  A    between atoms: _346  and  _348
REMARK  149  A    between atoms: _348  and  _349
REMARK  150  A    between atoms: _348  and  _351
REMARK  151  A    between atoms: _354  and  _356
REMARK  152  A    between atoms: _356  and  _357
REMARK  153  A    between atoms: _356  and  _359
REMARK  154  A    between atoms: _359  and  _360
REMARK  155  A    between atoms: _363  and  _365
REMARK  156  A    between atoms: _365  and  _366
REMARK  157  A    between atoms: _365  and  _368
REMARK  158  A    between atoms: _371  and  _373
REMARK  159  A    between atoms: _373  and  _374
REMARK  160  A    between atoms: _373  and  _376
REMARK  161  A    between atoms: _376  and  _377
REMARK  162  A    between atoms: _379  and  _381
REMARK  163  A    between atoms: _381  and  _382
REMARK  164  A    between atoms: _381  and  _384
REMARK  165  A    between atoms: _384  and  _385
REMARK  166  A    between atoms: _385  and  _386
REMARK  167  A    between atoms: _386  and  _387
REMARK  168  A    between atoms: _387  and  _388
REMARK  169  A    between atoms: _392  and  _394
REMARK  170  A    between atoms: _394  and  _395
REMARK  171  A    between atoms: _394  and  _397
REMARK  172  A    between atoms: _397  and  _398
REMARK  173  A    between atoms: _401  and  _403
REMARK  174  A    between atoms: _403  and  _404
REMARK  175  A    between atoms: _406  and  _408
REMARK  176  A    between atoms: _408  and  _409
REMARK  177  A    between atoms: _408  and  _411
REMARK  178  A    between atoms: _411  and  _412
REMARK  179  A    between atoms: _415  and  _417
REMARK  180  A    between atoms: _417  and  _418
REMARK  181  A    between atoms: _417  and  _420
REMARK  182  A    between atoms: _420  and  _421
REMARK  183  A    between atoms: _427  and  _429
REMARK  184  A    between atoms: _429  and  _430
REMARK  185  A    between atoms: _432  and  _434
REMARK  186  A    between atoms: _434  and  _435
REMARK  187  A    between atoms: _434  and  _437
REMARK  188  A    between atoms: _437  and  _438
REMARK  189  A    between atoms: _441  and  _443
REMARK  190  A    between atoms: _443  and  _444
REMARK  191  A    between atoms: _443  and  _446
REMARK  192  A    between atoms: _446  and  _447
REMARK  193  A    between atoms: _449  and  _451
REMARK  194  A    between atoms: _451  and  _452
REMARK  195  A    between atoms: _451  and  _454
REMARK  196  A    between atoms: _454  and  _455
REMARK  197  A    between atoms: _455  and  _456
REMARK  198  A    between atoms: _456  and  _457
REMARK  199  A    between atoms: _466  and  _468
REMARK  200  A    between atoms: _468  and  _469
REMARK  201  A    between atoms: _468  and  _471
REMARK  202  A    between atoms: _471  and  _472
REMARK  203  A    between atoms: _477  and  _478
REMARK  204  A    between atoms: _480  and  _482
REMARK  205  A    between atoms: _482  and  _483
REMARK  206  A    between atoms: _482  and  _485
REMARK  207  A    between atoms: _485  and  _486
REMARK  208  A    between atoms: _486  and  _487
REMARK                            x       y       z     vdW  Elec       q    Type
REMARK                         _______ _______ _______ _____ _____    ______ ____
ROOT
ATOM      1  O   HOH     1      32.628  -6.321 -42.080  0.00  0.00    +0.000 OA
ENDROOT
TORSDOF 0
REMARK  Name = ../refined-set-2016/4gu6/4gu6_pocket.pdb
REMARK  208 active torsions:
REMARK  status: ('A' for Active; 'I' for Inactive)
REMARK    1  A    between atoms: _1  and  _3
REMARK    2  A    between atoms: _3  and  _4
REMARK    3  A    between atoms: _3  and  _6
REMARK    4  A    between atoms: _8  and  _10
REMARK    5  A    between atoms: _10  and  _11
REMARK    6  A    between atoms: _10  and  _13
REMARK    7  A    between atoms: _13  and  _14
REMARK    8  A    between atoms: _17  and  _19
REMARK    9  A    between atoms: _19  and  _20
REMARK   10  A    between atoms: _22  and  _24
REMARK   11  A    between atoms: _24  and  _25
REMARK   12  A    between atoms: _24  and  _27
REMARK   13  A    between atoms: _27  and  _28
REMARK   14  A    between atoms: _28  and  _29
REMARK   15  A    between atoms: _32  and  _34
REMARK   16  A    between atoms: _34  and  _35
REMARK   17  A    between atoms: _37  and  _39
REMARK   18  A    between atoms: _39  and  _40
REMARK   19  A    between atoms: _39  and  _42
REMARK   20  A    between atoms: _42  and  _43
REMARK   21  A    between atoms: _43  and  _44
REMARK   22  A    between atoms: _49  and  _51
REMARK   23  A    between atoms: _51  and  _52
REMARK   24  A    between atoms: _54  and  _56
REMARK   25  A    between atoms: _56  and  _57
REMARK   26  A    between atoms: _56  and  _59
REMARK   27  A    between atoms: _59  and  _60
REMARK   28  A    between atoms: _63  and  _65
REMARK   29  A    between atoms: _65  and  _66
REMARK   30  A    between atoms: _65  and  _68
REMARK   31  A    between atoms: _71  and  _73
REMARK   32  A    between atoms: _73  and  _74
REMARK   33  A    between atoms: _73  and  _76
REMARK   34  A    between atoms: _76  and  _77
REMARK   35  A    between atoms: _82  and  _84
REMARK   36  A    between atoms: _84  and  _85
REMARK   37  A    between atoms: _84  and  _87
REMARK   38  A    between atoms: _87  and  _88
REMARK   39  A    between atoms: _88  and  _89
REMARK   40  A    between atoms: _94  and  _96
REMARK   41  A    between atoms: _96  and  _97
REMARK   42  A    between atoms: _100  and  _102
REMARK   43  A    between atoms: _102  and  _103
REMARK   44  A    between atoms: _102  and  _105
REMARK   45  A    between atoms: _108  and  _110
REMARK   46  A    between atoms: _110  and  _111
REMARK   47  A    between atoms: _114  and  _116
REMARK   48  A    between atoms: _116  and  _117
REMARK   49  A    between atoms: _116  and  _119
REMARK   50  A    between atoms: _119  and  _120
REMARK   51  A    between atoms: _123  and  _125
REMARK   52  A    between atoms: _125  and  _126
REMARK   53  A    between atoms: _125  and  _128
REMARK   54  A    between atoms: _128  and  _129
REMARK   55  A    between atoms: _129  and  _130
REMARK   56  A    between atoms: _130  and  _131
REMARK   57  A    between atoms: _131  and  _132
REMARK   58  A    between atoms: _136  and  _138
REMARK   59  A    between atoms: _138  and  _139
REMARK   60  A    between atoms: _138  and  _141
REMARK   61  A    between atoms: _141  and  _142
REMARK   62  A    between atoms: _142  and  _143
REMARK   63  A    between atoms: _145  and  _147
REMARK   64  A    between atoms: _147  and  _148
REMARK   65  A    between atoms: _147  and  _150
REMARK   66  A    between atoms: _153  and  _155
REMARK   67  A    between atoms: _155  and  _156
REMARK   68  A    between atoms: _155  and  _158
REMARK   69  A    between atoms: _158  and  _159
REMARK   70  A    between atoms: _159  and  _160
REMARK   71  A    between atoms: _160  and  _161
REMARK   72  A    between atoms: _161  and  _162
REMARK   73  A    between atoms: _166  and  _168
REMARK   74  A    between atoms: _168  and  _169
REMARK   75  A    between atoms: _168  and  _171
REMARK   76  A    between atoms: _171  and  _172
REMARK   77  A    between atoms: _175  and  _177
REMARK   78  A    between atoms: _177  and  _178
REMARK   79  A    between atoms: _177  and  _180
REMARK   80  A    between atoms: _180  and  _181
REMARK   81  A    between atoms: _184  and  _186
REMARK   82  A    between atoms: _186  and  _187
REMARK   83  A    between atoms: _186  and  _189
REMARK   84  A    between atoms: _189  and  _190
REMARK   85  A    between atoms: _190  and  _191
REMARK   86  A    between atoms: _193  and  _195
REMARK   87  A    between atoms: _195  and  _196
REMARK   88  A    between atoms: _195  and  _198
REMARK   89  A    between atoms: _199  and  _200
REMARK   90  A    between atoms: _203  and  _205
REMARK   91  A    between atoms: _205  and  _206
REMARK   92  A    between atoms: _205  and  _208
REMARK   93  A    between atoms: _208  and  _209
REMARK   94  A    between atoms: _212  and  _214
REMARK   95  A    between atoms: _214  and  _215
REMARK   96  A    between atoms: _214  and  _217
REMARK   97  A    between atoms: _219  and  _221
REMARK   98  A    between atoms: _221  and  _222
REMARK   99  A    between atoms: _221  and  _224
REMARK  100  A    between atoms: _224  and  _225
REMARK  101  A    between atoms: _228  and  _230
REMARK  102  A    between atoms: _230  and  _231
REMARK  103  A    between atoms: _230  and  _233
REMARK  104  A    between atoms: _233  and  _234
REMARK  105  A    between atoms: _237  and  _239
REMARK  106  A    between atoms: _239  and  _240
REMARK  107  A    between atoms: _242  and  _244
REMARK  108  A    between atoms: _244  and  _245
REMARK  109  A    between atoms: _244  and  _247
REMARK  110  A    between atoms: _247  and  _248
REMARK  111  A    between atoms: _248  and  _249
REMARK  112  A    between atoms: _252  and  _254
REMARK  113  A    between atoms: _254  and  _255
REMARK  114  A    between atoms: _254  and  _257
REMARK  115  A    between atoms: _257  and  _258
REMARK  116  A    between atoms: _261  and  _263
REMARK  117  A    between atoms: _263  and  _264
REMARK  118  A    between atoms: _263  and  _266
REMARK  119  A    between atoms: _266  and  _267
REMARK  120  A    between atoms: _267  and  _268
REMARK  121  A    between atoms: _268  and  _269
REMARK  122  A    between atoms: _278  and  _280
REMARK  123  A    between atoms: _280  and  _281
REMARK  124  A    between atoms: _280  and  _283
REMARK  125  A    between atoms: _283  and  _284
REMARK  126  A    between atoms: _286  and  _288
REMARK  127  A    between atoms: _288  and  _289
REMARK  128  A    between atoms: _288  and  _291
REMARK  129  A    between atoms: _291  and  _292
REMARK  130  A    between atoms: _297  and  _299
REMARK  131  A    between atoms: _299  and  _300
REMARK  132  A    between atoms: _299  and  _302
REMARK  133  A    between atoms: _302  and  _303
REMARK  134  A    between atoms: _306  and  _308
REMARK  135  A    between atoms: _308  and  _309
REMARK  136  A    between atoms: _312  and  _314
REMARK  137  A    between atoms: _314  and  _315
REMARK  138  A    between atoms: _318  and  _320
REMARK  139  A    between atoms: _320  and  _321
REMARK  140  A    between atoms: _320  and  _323
REMARK  141  A    between atoms: _323  and  _324
REMARK  142  A    between atoms: _324  and  _325
REMARK  143  A    between atoms: _325  and  _326
REMARK  144  A    between atoms: _335  and  _337
REMARK  145  A    between atoms: _337  and  _338
REMARK  146  A    between atoms: _337  and  _340
REMARK  147  A    between atoms: _340  and  _341
REMARK  148  A    between atoms: _346  and  _348
REMARK  149  A    between atoms: _348  and  _349
REMARK  150  A    between atoms: _348  and  _351
REMARK  151  A    between atoms: _354  and  _356
REMARK  152  A    between atoms: _356  and  _357
REMARK  153  A    between atoms: _356  and  _359
REMARK  154  A    between atoms: _359  and  _360
REMARK  155  A    between atoms: _363  and  _365
REMARK  156  A    between atoms: _365  and  _366
REMARK  157  A    between atoms: _365  and  _368
REMARK  158  A    between atoms: _371  and  _373
REMARK  159  A    between atoms: _373  and  _374
REMARK  160  A    between atoms: _373  and  _376
REMARK  161  A    between atoms: _376  and  _377
REMARK  162  A    between atoms: _379  and  _381
REMARK  163  A    between atoms: _381  and  _382
REMARK  164  A    between atoms: _381  and  _384
REMARK  165  A    between atoms: _384  and  _385
REMARK  166  A    between atoms: _385  and  _386
REMARK  167  A    between atoms: _386  and  _387
REMARK  168  A    between atoms: _387  and  _388
REMARK  169  A    between atoms: _392  and  _394
REMARK  170  A    between atoms: _394  and  _395
REMARK  171  A    between atoms: _394  and  _397
REMARK  172  A    between atoms: _397  and  _398
REMARK  173  A    between atoms: _401  and  _403
REMARK  174  A    between atoms: _403  and  _404
REMARK  175  A    between atoms: _406  and  _408
REMARK  176  A    between atoms: _408  and  _409
REMARK  177  A    between atoms: _408  and  _411
REMARK  178  A    between atoms: _411  and  _412
REMARK  179  A    between atoms: _415  and  _417
REMARK  180  A    between atoms: _417  and  _418
REMARK  181  A    between atoms: _417  and  _420
REMARK  182  A    between atoms: _420  and  _421
REMARK  183  A    between atoms: _427  and  _429
REMARK  184  A    between atoms: _429  and  _430
REMARK  185  A    between atoms: _432  and  _434
REMARK  186  A    between atoms: _434  and  _435
REMARK  187  A    between atoms: _434  and  _437
REMARK  188  A    between atoms: _437  and  _438
REMARK  189  A    between atoms: _441  and  _443
REMARK  190  A    between atoms: _443  and  _444
REMARK  191  A    between atoms: _443  and  _446
REMARK  192  A    between atoms: _446  and  _447
REMARK  193  A    between atoms: _449  and  _451
REMARK  194  A    between atoms: _451  and  _452
REMARK  195  A    between atoms: _451  and  _454
REMARK  196  A    between atoms: _454  and  _455
REMARK  197  A    between atoms: _455  and  _456
REMARK  198  A    between atoms: _456  and  _457
REMARK  199  A    between atoms: _466  and  _468
REMARK  200  A    between atoms: _468  and  _469
REMARK  201  A    between atoms: _468  and  _471
REMARK  202  A    between atoms: _471  and  _472
REMARK  203  A    between atoms: _477  and  _478
REMARK  204  A    between atoms: _480  and  _482
REMARK  205  A    between atoms: _482  and  _483
REMARK  206  A    between atoms: _482  and  _485
REMARK  207  A    between atoms: _485  and  _486
REMARK  208  A    between atoms: _486  and  _487
REMARK                            x       y       z     vdW  Elec       q    Type
REMARK                         _______ _______ _______ _____ _____    ______ ____
ROOT
ATOM      1  O   HOH     1      21.958  -8.597 -46.015  0.00  0.00    +0.000 OA
ENDROOT
TORSDOF 0
REMARK  Name = ../refined-set-2016/4gu6/4gu6_pocket.pdb
REMARK  208 active torsions:
REMARK  status: ('A' for Active; 'I' for Inactive)
REMARK    1  A    between atoms: _1  and  _3
REMARK    2  A    between atoms: _3  and  _4
REMARK    3  A    between atoms: _3  and  _6
REMARK    4  A    between atoms: _8  and  _10
REMARK    5  A    between atoms: _10  and  _11
REMARK    6  A    between atoms: _10  and  _13
REMARK    7  A    between atoms: _13  and  _14
REMARK    8  A    between atoms: _17  and  _19
REMARK    9  A    between atoms: _19  and  _20
REMARK   10  A    between atoms: _22  and  _24
REMARK   11  A    between atoms: _24  and  _25
REMARK   12  A    between atoms: _24  and  _27
REMARK   13  A    between atoms: _27  and  _28
REMARK   14  A    between atoms: _28  and  _29
REMARK   15  A    between atoms: _32  and  _34
REMARK   16  A    between atoms: _34  and  _35
REMARK   17  A    between atoms: _37  and  _39
REMARK   18  A    between atoms: _39  and  _40
REMARK   19  A    between atoms: _39  and  _42
REMARK   20  A    between atoms: _42  and  _43
REMARK   21  A    between atoms: _43  and  _44
REMARK   22  A    between atoms: _49  and  _51
REMARK   23  A    between atoms: _51  and  _52
REMARK   24  A    between atoms: _54  and  _56
REMARK   25  A    between atoms: _56  and  _57
REMARK   26  A    between atoms: _56  and  _59
REMARK   27  A    between atoms: _59  and  _60
REMARK   28  A    between atoms: _63  and  _65
REMARK   29  A    between atoms: _65  and  _66
REMARK   30  A    between atoms: _65  and  _68
REMARK   31  A    between atoms: _71  and  _73
REMARK   32  A    between atoms: _73  and  _74
REMARK   33  A    between atoms: _73  and  _76
REMARK   34  A    between atoms: _76  and  _77
REMARK   35  A    between atoms: _82  and  _84
REMARK   36  A    between atoms: _84  and  _85
REMARK   37  A    between atoms: _84  and  _87
REMARK   38  A    between atoms: _87  and  _88
REMARK   39  A    between atoms: _88  and  _89
REMARK   40  A    between atoms: _94  and  _96
REMARK   41  A    between atoms: _96  and  _97
REMARK   42  A    between atoms: _100  and  _102
REMARK   43  A    between atoms: _102  and  _103
REMARK   44  A    between atoms: _102  and  _105
REMARK   45  A    between atoms: _108  and  _110
REMARK   46  A    between atoms: _110  and  _111
REMARK   47  A    between atoms: _114  and  _116
REMARK   48  A    between atoms: _116  and  _117
REMARK   49  A    between atoms: _116  and  _119
REMARK   50  A    between atoms: _119  and  _120
REMARK   51  A    between atoms: _123  and  _125
REMARK   52  A    between atoms: _125  and  _126
REMARK   53  A    between atoms: _125  and  _128
REMARK   54  A    between atoms: _128  and  _129
REMARK   55  A    between atoms: _129  and  _130
REMARK   56  A    between atoms: _130  and  _131
REMARK   57  A    between atoms: _131  and  _132
REMARK   58  A    between atoms: _136  and  _138
REMARK   59  A    between atoms: _138  and  _139
REMARK   60  A    between atoms: _138  and  _141
REMARK   61  A    between atoms: _141  and  _142
REMARK   62  A    between atoms: _142  and  _143
REMARK   63  A    between atoms: _145  and  _147
REMARK   64  A    between atoms: _147  and  _148
REMARK   65  A    between atoms: _147  and  _150
REMARK   66  A    between atoms: _153  and  _155
REMARK   67  A    between atoms: _155  and  _156
REMARK   68  A    between atoms: _155  and  _158
REMARK   69  A    between atoms: _158  and  _159
REMARK   70  A    between atoms: _159  and  _160
REMARK   71  A    between atoms: _160  and  _161
REMARK   72  A    between atoms: _161  and  _162
REMARK   73  A    between atoms: _166  and  _168
REMARK   74  A    between atoms: _168  and  _169
REMARK   75  A    between atoms: _168  and  _171
REMARK   76  A    between atoms: _171  and  _172
REMARK   77  A    between atoms: _175  and  _177
REMARK   78  A    between atoms: _177  and  _178
REMARK   79  A    between atoms: _177  and  _180
REMARK   80  A    between atoms: _180  and  _181
REMARK   81  A    between atoms: _184  and  _186
REMARK   82  A    between atoms: _186  and  _187
REMARK   83  A    between atoms: _186  and  _189
REMARK   84  A    between atoms: _189  and  _190
REMARK   85  A    between atoms: _190  and  _191
REMARK   86  A    between atoms: _193  and  _195
REMARK   87  A    between atoms: _195  and  _196
REMARK   88  A    between atoms: _195  and  _198
REMARK   89  A    between atoms: _199  and  _200
REMARK   90  A    between atoms: _203  and  _205
REMARK   91  A    between atoms: _205  and  _206
REMARK   92  A    between atoms: _205  and  _208
REMARK   93  A    between atoms: _208  and  _209
REMARK   94  A    between atoms: _212  and  _214
REMARK   95  A    between atoms: _214  and  _215
REMARK   96  A    between atoms: _214  and  _217
REMARK   97  A    between atoms: _219  and  _221
REMARK   98  A    between atoms: _221  and  _222
REMARK   99  A    between atoms: _221  and  _224
REMARK  100  A    between atoms: _224  and  _225
REMARK  101  A    between atoms: _228  and  _230
REMARK  102  A    between atoms: _230  and  _231
REMARK  103  A    between atoms: _230  and  _233
REMARK  104  A    between atoms: _233  and  _234
REMARK  105  A    between atoms: _237  and  _239
REMARK  106  A    between atoms: _239  and  _240
REMARK  107  A    between atoms: _242  and  _244
REMARK  108  A    between atoms: _244  and  _245
REMARK  109  A    between atoms: _244  and  _247
REMARK  110  A    between atoms: _247  and  _248
REMARK  111  A    between atoms: _248  and  _249
REMARK  112  A    between atoms: _252  and  _254
REMARK  113  A    between atoms: _254  and  _255
REMARK  114  A    between atoms: _254  and  _257
REMARK  115  A    between atoms: _257  and  _258
REMARK  116  A    between atoms: _261  and  _263
REMARK  117  A    between atoms: _263  and  _264
REMARK  118  A    between atoms: _263  and  _266
REMARK  119  A    between atoms: _266  and  _267
REMARK  120  A    between atoms: _267  and  _268
REMARK  121  A    between atoms: _268  and  _269
REMARK  122  A    between atoms: _278  and  _280
REMARK  123  A    between atoms: _280  and  _281
REMARK  124  A    between atoms: _280  and  _283
REMARK  125  A    between atoms: _283  and  _284
REMARK  126  A    between atoms: _286  and  _288
REMARK  127  A    between atoms: _288  and  _289
REMARK  128  A    between atoms: _288  and  _291
REMARK  129  A    between atoms: _291  and  _292
REMARK  130  A    between atoms: _297  and  _299
REMARK  131  A    between atoms: _299  and  _300
REMARK  132  A    between atoms: _299  and  _302
REMARK  133  A    between atoms: _302  and  _303
REMARK  134  A    between atoms: _306  and  _308
REMARK  135  A    between atoms: _308  and  _309
REMARK  136  A    between atoms: _312  and  _314
REMARK  137  A    between atoms: _314  and  _315
REMARK  138  A    between atoms: _318  and  _320
REMARK  139  A    between atoms: _320  and  _321
REMARK  140  A    between atoms: _320  and  _323
REMARK  141  A    between atoms: _323  and  _324
REMARK  142  A    between atoms: _324  and  _325
REMARK  143  A    between atoms: _325  and  _326
REMARK  144  A    between atoms: _335  and  _337
REMARK  145  A    between atoms: _337  and  _338
REMARK  146  A    between atoms: _337  and  _340
REMARK  147  A    between atoms: _340  and  _341
REMARK  148  A    between atoms: _346  and  _348
REMARK  149  A    between atoms: _348  and  _349
REMARK  150  A    between atoms: _348  and  _351
REMARK  151  A    between atoms: _354  and  _356
REMARK  152  A    between atoms: _356  and  _357
REMARK  153  A    between atoms: _356  and  _359
REMARK  154  A    between atoms: _359  and  _360
REMARK  155  A    between atoms: _363  and  _365
REMARK  156  A    between atoms: _365  and  _366
REMARK  157  A    between atoms: _365  and  _368
REMARK  158  A    between atoms: _371  and  _373
REMARK  159  A    between atoms: _373  and  _374
REMARK  160  A    between atoms: _373  and  _376
REMARK  161  A    between atoms: _376  and  _377
REMARK  162  A    between atoms: _379  and  _381
REMARK  163  A    between atoms: _381  and  _382
REMARK  164  A    between atoms: _381  and  _384
REMARK  165  A    between atoms: _384  and  _385
REMARK  166  A    between atoms: _385  and  _386
REMARK  167  A    between atoms: _386  and  _387
REMARK  168  A    between atoms: _387  and  _388
REMARK  169  A    between atoms: _392  and  _394
REMARK  170  A    between atoms: _394  and  _395
REMARK  171  A    between atoms: _394  and  _397
REMARK  172  A    between atoms: _397  and  _398
REMARK  173  A    between atoms: _401  and  _403
REMARK  174  A    between atoms: _403  and  _404
REMARK  175  A    between atoms: _406  and  _408
REMARK  176  A    between atoms: _408  and  _409
REMARK  177  A    between atoms: _408  and  _411
REMARK  178  A    between atoms: _411  and  _412
REMARK  179  A    between atoms: _415  and  _417
REMARK  180  A    between atoms: _417  and  _418
REMARK  181  A    between atoms: _417  and  _420
REMARK  182  A    between atoms: _420  and  _421
REMARK  183  A    between atoms: _427  and  _429
REMARK  184  A    between atoms: _429  and  _430
REMARK  185  A    between atoms: _432  and  _434
REMARK  186  A    between atoms: _434  and  _435
REMARK  187  A    between atoms: _434  and  _437
REMARK  188  A    between atoms: _437  and  _438
REMARK  189  A    between atoms: _441  and  _443
REMARK  190  A    between atoms: _443  and  _444
REMARK  191  A    between atoms: _443  and  _446
REMARK  192  A    between atoms: _446  and  _447
REMARK  193  A    between atoms: _449  and  _451
REMARK  194  A    between atoms: _451  and  _452
REMARK  195  A    between atoms: _451  and  _454
REMARK  196  A    between atoms: _454  and  _455
REMARK  197  A    between atoms: _455  and  _456
REMARK  198  A    between atoms: _456  and  _457
REMARK  199  A    between atoms: _466  and  _468
REMARK  200  A    between atoms: _468  and  _469
REMARK  201  A    between atoms: _468  and  _471
REMARK  202  A    between atoms: _471  and  _472
REMARK  203  A    between atoms: _477  and  _478
REMARK  204  A    between atoms: _480  and  _482
REMARK  205  A    between atoms: _482  and  _483
REMARK  206  A    between atoms: _482  and  _485
REMARK  207  A    between atoms: _485  and  _486
REMARK  208  A    between atoms: _486  and  _487
REMARK                            x       y       z     vdW  Elec       q    Type
REMARK                         _______ _______ _______ _____ _____    ______ ____
ROOT
ATOM      1  O   HOH     1      25.771 -17.816 -40.894  0.00  0.00    +0.000 OA
ENDROOT
TORSDOF 0
REMARK  Name = ../refined-set-2016/4gu6/4gu6_pocket.pdb
REMARK  208 active torsions:
REMARK  status: ('A' for Active; 'I' for Inactive)
REMARK    1  A    between atoms: _1  and  _3
REMARK    2  A    between atoms: _3  and  _4
REMARK    3  A    between atoms: _3  and  _6
REMARK    4  A    between atoms: _8  and  _10
REMARK    5  A    between atoms: _10  and  _11
REMARK    6  A    between atoms: _10  and  _13
REMARK    7  A    between atoms: _13  and  _14
REMARK    8  A    between atoms: _17  and  _19
REMARK    9  A    between atoms: _19  and  _20
REMARK   10  A    between atoms: _22  and  _24
REMARK   11  A    between atoms: _24  and  _25
REMARK   12  A    between atoms: _24  and  _27
REMARK   13  A    between atoms: _27  and  _28
REMARK   14  A    between atoms: _28  and  _29
REMARK   15  A    between atoms: _32  and  _34
REMARK   16  A    between atoms: _34  and  _35
REMARK   17  A    between atoms: _37  and  _39
REMARK   18  A    between atoms: _39  and  _40
REMARK   19  A    between atoms: _39  and  _42
REMARK   20  A    between atoms: _42  and  _43
REMARK   21  A    between atoms: _43  and  _44
REMARK   22  A    between atoms: _49  and  _51
REMARK   23  A    between atoms: _51  and  _52
REMARK   24  A    between atoms: _54  and  _56
REMARK   25  A    between atoms: _56  and  _57
REMARK   26  A    between atoms: _56  and  _59
REMARK   27  A    between atoms: _59  and  _60
REMARK   28  A    between atoms: _63  and  _65
REMARK   29  A    between atoms: _65  and  _66
REMARK   30  A    between atoms: _65  and  _68
REMARK   31  A    between atoms: _71  and  _73
REMARK   32  A    between atoms: _73  and  _74
REMARK   33  A    between atoms: _73  and  _76
REMARK   34  A    between atoms: _76  and  _77
REMARK   35  A    between atoms: _82  and  _84
REMARK   36  A    between atoms: _84  and  _85
REMARK   37  A    between atoms: _84  and  _87
REMARK   38  A    between atoms: _87  and  _88
REMARK   39  A    between atoms: _88  and  _89
REMARK   40  A    between atoms: _94  and  _96
REMARK   41  A    between atoms: _96  and  _97
REMARK   42  A    between atoms: _100  and  _102
REMARK   43  A    between atoms: _102  and  _103
REMARK   44  A    between atoms: _102  and  _105
REMARK   45  A    between atoms: _108  and  _110
REMARK   46  A    between atoms: _110  and  _111
REMARK   47  A    between atoms: _114  and  _116
REMARK   48  A    between atoms: _116  and  _117
REMARK   49  A    between atoms: _116  and  _119
REMARK   50  A    between atoms: _119  and  _120
REMARK   51  A    between atoms: _123  and  _125
REMARK   52  A    between atoms: _125  and  _126
REMARK   53  A    between atoms: _125  and  _128
REMARK   54  A    between atoms: _128  and  _129
REMARK   55  A    between atoms: _129  and  _130
REMARK   56  A    between atoms: _130  and  _131
REMARK   57  A    between atoms: _131  and  _132
REMARK   58  A    between atoms: _136  and  _138
REMARK   59  A    between atoms: _138  and  _139
REMARK   60  A    between atoms: _138  and  _141
REMARK   61  A    between atoms: _141  and  _142
REMARK   62  A    between atoms: _142  and  _143
REMARK   63  A    between atoms: _145  and  _147
REMARK   64  A    between atoms: _147  and  _148
REMARK   65  A    between atoms: _147  and  _150
REMARK   66  A    between atoms: _153  and  _155
REMARK   67  A    between atoms: _155  and  _156
REMARK   68  A    between atoms: _155  and  _158
REMARK   69  A    between atoms: _158  and  _159
REMARK   70  A    between atoms: _159  and  _160
REMARK   71  A    between atoms: _160  and  _161
REMARK   72  A    between atoms: _161  and  _162
REMARK   73  A    between atoms: _166  and  _168
REMARK   74  A    between atoms: _168  and  _169
REMARK   75  A    between atoms: _168  and  _171
REMARK   76  A    between atoms: _171  and  _172
REMARK   77  A    between atoms: _175  and  _177
REMARK   78  A    between atoms: _177  and  _178
REMARK   79  A    between atoms: _177  and  _180
REMARK   80  A    between atoms: _180  and  _181
REMARK   81  A    between atoms: _184  and  _186
REMARK   82  A    between atoms: _186  and  _187
REMARK   83  A    between atoms: _186  and  _189
REMARK   84  A    between atoms: _189  and  _190
REMARK   85  A    between atoms: _190  and  _191
REMARK   86  A    between atoms: _193  and  _195
REMARK   87  A    between atoms: _195  and  _196
REMARK   88  A    between atoms: _195  and  _198
REMARK   89  A    between atoms: _199  and  _200
REMARK   90  A    between atoms: _203  and  _205
REMARK   91  A    between atoms: _205  and  _206
REMARK   92  A    between atoms: _205  and  _208
REMARK   93  A    between atoms: _208  and  _209
REMARK   94  A    between atoms: _212  and  _214
REMARK   95  A    between atoms: _214  and  _215
REMARK   96  A    between atoms: _214  and  _217
REMARK   97  A    between atoms: _219  and  _221
REMARK   98  A    between atoms: _221  and  _222
REMARK   99  A    between atoms: _221  and  _224
REMARK  100  A    between atoms: _224  and  _225
REMARK  101  A    between atoms: _228  and  _230
REMARK  102  A    between atoms: _230  and  _231
REMARK  103  A    between atoms: _230  and  _233
REMARK  104  A    between atoms: _233  and  _234
REMARK  105  A    between atoms: _237  and  _239
REMARK  106  A    between atoms: _239  and  _240
REMARK  107  A    between atoms: _242  and  _244
REMARK  108  A    between atoms: _244  and  _245
REMARK  109  A    between atoms: _244  and  _247
REMARK  110  A    between atoms: _247  and  _248
REMARK  111  A    between atoms: _248  and  _249
REMARK  112  A    between atoms: _252  and  _254
REMARK  113  A    between atoms: _254  and  _255
REMARK  114  A    between atoms: _254  and  _257
REMARK  115  A    between atoms: _257  and  _258
REMARK  116  A    between atoms: _261  and  _263
REMARK  117  A    between atoms: _263  and  _264
REMARK  118  A    between atoms: _263  and  _266
REMARK  119  A    between atoms: _266  and  _267
REMARK  120  A    between atoms: _267  and  _268
REMARK  121  A    between atoms: _268  and  _269
REMARK  122  A    between atoms: _278  and  _280
REMARK  123  A    between atoms: _280  and  _281
REMARK  124  A    between atoms: _280  and  _283
REMARK  125  A    between atoms: _283  and  _284
REMARK  126  A    between atoms: _286  and  _288
REMARK  127  A    between atoms: _288  and  _289
REMARK  128  A    between atoms: _288  and  _291
REMARK  129  A    between atoms: _291  and  _292
REMARK  130  A    between atoms: _297  and  _299
REMARK  131  A    between atoms: _299  and  _300
REMARK  132  A    between atoms: _299  and  _302
REMARK  133  A    between atoms: _302  and  _303
REMARK  134  A    between atoms: _306  and  _308
REMARK  135  A    between atoms: _308  and  _309
REMARK  136  A    between atoms: _312  and  _314
REMARK  137  A    between atoms: _314  and  _315
REMARK  138  A    between atoms: _318  and  _320
REMARK  139  A    between atoms: _320  and  _321
REMARK  140  A    between atoms: _320  and  _323
REMARK  141  A    between atoms: _323  and  _324
REMARK  142  A    between atoms: _324  and  _325
REMARK  143  A    between atoms: _325  and  _326
REMARK  144  A    between atoms: _335  and  _337
REMARK  145  A    between atoms: _337  and  _338
REMARK  146  A    between atoms: _337  and  _340
REMARK  147  A    between atoms: _340  and  _341
REMARK  148  A    between atoms: _346  and  _348
REMARK  149  A    between atoms: _348  and  _349
REMARK  150  A    between atoms: _348  and  _351
REMARK  151  A    between atoms: _354  and  _356
REMARK  152  A    between atoms: _356  and  _357
REMARK  153  A    between atoms: _356  and  _359
REMARK  154  A    between atoms: _359  and  _360
REMARK  155  A    between atoms: _363  and  _365
REMARK  156  A    between atoms: _365  and  _366
REMARK  157  A    between atoms: _365  and  _368
REMARK  158  A    between atoms: _371  and  _373
REMARK  159  A    between atoms: _373  and  _374
REMARK  160  A    between atoms: _373  and  _376
REMARK  161  A    between atoms: _376  and  _377
REMARK  162  A    between atoms: _379  and  _381
REMARK  163  A    between atoms: _381  and  _382
REMARK  164  A    between atoms: _381  and  _384
REMARK  165  A    between atoms: _384  and  _385
REMARK  166  A    between atoms: _385  and  _386
REMARK  167  A    between atoms: _386  and  _387
REMARK  168  A    between atoms: _387  and  _388
REMARK  169  A    between atoms: _392  and  _394
REMARK  170  A    between atoms: _394  and  _395
REMARK  171  A    between atoms: _394  and  _397
REMARK  172  A    between atoms: _397  and  _398
REMARK  173  A    between atoms: _401  and  _403
REMARK  174  A    between atoms: _403  and  _404
REMARK  175  A    between atoms: _406  and  _408
REMARK  176  A    between atoms: _408  and  _409
REMARK  177  A    between atoms: _408  and  _411
REMARK  178  A    between atoms: _411  and  _412
REMARK  179  A    between atoms: _415  and  _417
REMARK  180  A    between atoms: _417  and  _418
REMARK  181  A    between atoms: _417  and  _420
REMARK  182  A    between atoms: _420  and  _421
REMARK  183  A    between atoms: _427  and  _429
REMARK  184  A    between atoms: _429  and  _430
REMARK  185  A    between atoms: _432  and  _434
REMARK  186  A    between atoms: _434  and  _435
REMARK  187  A    between atoms: _434  and  _437
REMARK  188  A    between atoms: _437  and  _438
REMARK  189  A    between atoms: _441  and  _443
REMARK  190  A    between atoms: _443  and  _444
REMARK  191  A    between atoms: _443  and  _446
REMARK  192  A    between atoms: _446  and  _447
REMARK  193  A    between atoms: _449  and  _451
REMARK  194  A    between atoms: _451  and  _452
REMARK  195  A    between atoms: _451  and  _454
REMARK  196  A    between atoms: _454  and  _455
REMARK  197  A    between atoms: _455  and  _456
REMARK  198  A    between atoms: _456  and  _457
REMARK  199  A    between atoms: _466  and  _468
REMARK  200  A    between atoms: _468  and  _469
REMARK  201  A    between atoms: _468  and  _471
REMARK  202  A    between atoms: _471  and  _472
REMARK  203  A    between atoms: _477  and  _478
REMARK  204  A    between atoms: _480  and  _482
REMARK  205  A    between atoms: _482  and  _483
REMARK  206  A    between atoms: _482  and  _485
REMARK  207  A    between atoms: _485  and  _486
REMARK  208  A    between atoms: _486  and  _487
REMARK                            x       y       z     vdW  Elec       q    Type
REMARK                         _______ _______ _______ _____ _____    ______ ____
ROOT
ATOM      1  O   HOH     1      14.660  -5.498 -45.621  0.00  0.00    +0.000 OA
ENDROOT
TORSDOF 0
REMARK  Name = ../refined-set-2016/4gu6/4gu6_pocket.pdb
REMARK  208 active torsions:
REMARK  status: ('A' for Active; 'I' for Inactive)
REMARK    1  A    between atoms: _1  and  _3
REMARK    2  A    between atoms: _3  and  _4
REMARK    3  A    between atoms: _3  and  _6
REMARK    4  A    between atoms: _8  and  _10
REMARK    5  A    between atoms: _10  and  _11
REMARK    6  A    between atoms: _10  and  _13
REMARK    7  A    between atoms: _13  and  _14
REMARK    8  A    between atoms: _17  and  _19
REMARK    9  A    between atoms: _19  and  _20
REMARK   10  A    between atoms: _22  and  _24
REMARK   11  A    between atoms: _24  and  _25
REMARK   12  A    between atoms: _24  and  _27
REMARK   13  A    between atoms: _27  and  _28
REMARK   14  A    between atoms: _28  and  _29
REMARK   15  A    between atoms: _32  and  _34
REMARK   16  A    between atoms: _34  and  _35
REMARK   17  A    between atoms: _37  and  _39
REMARK   18  A    between atoms: _39  and  _40
REMARK   19  A    between atoms: _39  and  _42
REMARK   20  A    between atoms: _42  and  _43
REMARK   21  A    between atoms: _43  and  _44
REMARK   22  A    between atoms: _49  and  _51
REMARK   23  A    between atoms: _51  and  _52
REMARK   24  A    between atoms: _54  and  _56
REMARK   25  A    between atoms: _56  and  _57
REMARK   26  A    between atoms: _56  and  _59
REMARK   27  A    between atoms: _59  and  _60
REMARK   28  A    between atoms: _63  and  _65
REMARK   29  A    between atoms: _65  and  _66
REMARK   30  A    between atoms: _65  and  _68
REMARK   31  A    between atoms: _71  and  _73
REMARK   32  A    between atoms: _73  and  _74
REMARK   33  A    between atoms: _73  and  _76
REMARK   34  A    between atoms: _76  and  _77
REMARK   35  A    between atoms: _82  and  _84
REMARK   36  A    between atoms: _84  and  _85
REMARK   37  A    between atoms: _84  and  _87
REMARK   38  A    between atoms: _87  and  _88
REMARK   39  A    between atoms: _88  and  _89
REMARK   40  A    between atoms: _94  and  _96
REMARK   41  A    between atoms: _96  and  _97
REMARK   42  A    between atoms: _100  and  _102
REMARK   43  A    between atoms: _102  and  _103
REMARK   44  A    between atoms: _102  and  _105
REMARK   45  A    between atoms: _108  and  _110
REMARK   46  A    between atoms: _110  and  _111
REMARK   47  A    between atoms: _114  and  _116
REMARK   48  A    between atoms: _116  and  _117
REMARK   49  A    between atoms: _116  and  _119
REMARK   50  A    between atoms: _119  and  _120
REMARK   51  A    between atoms: _123  and  _125
REMARK   52  A    between atoms: _125  and  _126
REMARK   53  A    between atoms: _125  and  _128
REMARK   54  A    between atoms: _128  and  _129
REMARK   55  A    between atoms: _129  and  _130
REMARK   56  A    between atoms: _130  and  _131
REMARK   57  A    between atoms: _131  and  _132
REMARK   58  A    between atoms: _136  and  _138
REMARK   59  A    between atoms: _138  and  _139
REMARK   60  A    between atoms: _138  and  _141
REMARK   61  A    between atoms: _141  and  _142
REMARK   62  A    between atoms: _142  and  _143
REMARK   63  A    between atoms: _145  and  _147
REMARK   64  A    between atoms: _147  and  _148
REMARK   65  A    between atoms: _147  and  _150
REMARK   66  A    between atoms: _153  and  _155
REMARK   67  A    between atoms: _155  and  _156
REMARK   68  A    between atoms: _155  and  _158
REMARK   69  A    between atoms: _158  and  _159
REMARK   70  A    between atoms: _159  and  _160
REMARK   71  A    between atoms: _160  and  _161
REMARK   72  A    between atoms: _161  and  _162
REMARK   73  A    between atoms: _166  and  _168
REMARK   74  A    between atoms: _168  and  _169
REMARK   75  A    between atoms: _168  and  _171
REMARK   76  A    between atoms: _171  and  _172
REMARK   77  A    between atoms: _175  and  _177
REMARK   78  A    between atoms: _177  and  _178
REMARK   79  A    between atoms: _177  and  _180
REMARK   80  A    between atoms: _180  and  _181
REMARK   81  A    between atoms: _184  and  _186
REMARK   82  A    between atoms: _186  and  _187
REMARK   83  A    between atoms: _186  and  _189
REMARK   84  A    between atoms: _189  and  _190
REMARK   85  A    between atoms: _190  and  _191
REMARK   86  A    between atoms: _193  and  _195
REMARK   87  A    between atoms: _195  and  _196
REMARK   88  A    between atoms: _195  and  _198
REMARK   89  A    between atoms: _199  and  _200
REMARK   90  A    between atoms: _203  and  _205
REMARK   91  A    between atoms: _205  and  _206
REMARK   92  A    between atoms: _205  and  _208
REMARK   93  A    between atoms: _208  and  _209
REMARK   94  A    between atoms: _212  and  _214
REMARK   95  A    between atoms: _214  and  _215
REMARK   96  A    between atoms: _214  and  _217
REMARK   97  A    between atoms: _219  and  _221
REMARK   98  A    between atoms: _221  and  _222
REMARK   99  A    between atoms: _221  and  _224
REMARK  100  A    between atoms: _224  and  _225
REMARK  101  A    between atoms: _228  and  _230
REMARK  102  A    between atoms: _230  and  _231
REMARK  103  A    between atoms: _230  and  _233
REMARK  104  A    between atoms: _233  and  _234
REMARK  105  A    between atoms: _237  and  _239
REMARK  106  A    between atoms: _239  and  _240
REMARK  107  A    between atoms: _242  and  _244
REMARK  108  A    between atoms: _244  and  _245
REMARK  109  A    between atoms: _244  and  _247
REMARK  110  A    between atoms: _247  and  _248
REMARK  111  A    between atoms: _248  and  _249
REMARK  112  A    between atoms: _252  and  _254
REMARK  113  A    between atoms: _254  and  _255
REMARK  114  A    between atoms: _254  and  _257
REMARK  115  A    between atoms: _257  and  _258
REMARK  116  A    between atoms: _261  and  _263
REMARK  117  A    between atoms: _263  and  _264
REMARK  118  A    between atoms: _263  and  _266
REMARK  119  A    between atoms: _266  and  _267
REMARK  120  A    between atoms: _267  and  _268
REMARK  121  A    between atoms: _268  and  _269
REMARK  122  A    between atoms: _278  and  _280
REMARK  123  A    between atoms: _280  and  _281
REMARK  124  A    between atoms: _280  and  _283
REMARK  125  A    between atoms: _283  and  _284
REMARK  126  A    between atoms: _286  and  _288
REMARK  127  A    between atoms: _288  and  _289
REMARK  128  A    between atoms: _288  and  _291
REMARK  129  A    between atoms: _291  and  _292
REMARK  130  A    between atoms: _297  and  _299
REMARK  131  A    between atoms: _299  and  _300
REMARK  132  A    between atoms: _299  and  _302
REMARK  133  A    between atoms: _302  and  _303
REMARK  134  A    between atoms: _306  and  _308
REMARK  135  A    between atoms: _308  and  _309
REMARK  136  A    between atoms: _312  and  _314
REMARK  137  A    between atoms: _314  and  _315
REMARK  138  A    between atoms: _318  and  _320
REMARK  139  A    between atoms: _320  and  _321
REMARK  140  A    between atoms: _320  and  _323
REMARK  141  A    between atoms: _323  and  _324
REMARK  142  A    between atoms: _324  and  _325
REMARK  143  A    between atoms: _325  and  _326
REMARK  144  A    between atoms: _335  and  _337
REMARK  145  A    between atoms: _337  and  _338
REMARK  146  A    between atoms: _337  and  _340
REMARK  147  A    between atoms: _340  and  _341
REMARK  148  A    between atoms: _346  and  _348
REMARK  149  A    between atoms: _348  and  _349
REMARK  150  A    between atoms: _348  and  _351
REMARK  151  A    between atoms: _354  and  _356
REMARK  152  A    between atoms: _356  and  _357
REMARK  153  A    between atoms: _356  and  _359
REMARK  154  A    between atoms: _359  and  _360
REMARK  155  A    between atoms: _363  and  _365
REMARK  156  A    between atoms: _365  and  _366
REMARK  157  A    between atoms: _365  and  _368
REMARK  158  A    between atoms: _371  and  _373
REMARK  159  A    between atoms: _373  and  _374
REMARK  160  A    between atoms: _373  and  _376
REMARK  161  A    between atoms: _376  and  _377
REMARK  162  A    between atoms: _379  and  _381
REMARK  163  A    between atoms: _381  and  _382
REMARK  164  A    between atoms: _381  and  _384
REMARK  165  A    between atoms: _384  and  _385
REMARK  166  A    between atoms: _385  and  _386
REMARK  167  A    between atoms: _386  and  _387
REMARK  168  A    between atoms: _387  and  _388
REMARK  169  A    between atoms: _392  and  _394
REMARK  170  A    between atoms: _394  and  _395
REMARK  171  A    between atoms: _394  and  _397
REMARK  172  A    between atoms: _397  and  _398
REMARK  173  A    between atoms: _401  and  _403
REMARK  174  A    between atoms: _403  and  _404
REMARK  175  A    between atoms: _406  and  _408
REMARK  176  A    between atoms: _408  and  _409
REMARK  177  A    between atoms: _408  and  _411
REMARK  178  A    between atoms: _411  and  _412
REMARK  179  A    between atoms: _415  and  _417
REMARK  180  A    between atoms: _417  and  _418
REMARK  181  A    between atoms: _417  and  _420
REMARK  182  A    between atoms: _420  and  _421
REMARK  183  A    between atoms: _427  and  _429
REMARK  184  A    between atoms: _429  and  _430
REMARK  185  A    between atoms: _432  and  _434
REMARK  186  A    between atoms: _434  and  _435
REMARK  187  A    between atoms: _434  and  _437
REMARK  188  A    between atoms: _437  and  _438
REMARK  189  A    between atoms: _441  and  _443
REMARK  190  A    between atoms: _443  and  _444
REMARK  191  A    between atoms: _443  and  _446
REMARK  192  A    between atoms: _446  and  _447
REMARK  193  A    between atoms: _449  and  _451
REMARK  194  A    between atoms: _451  and  _452
REMARK  195  A    between atoms: _451  and  _454
REMARK  196  A    between atoms: _454  and  _455
REMARK  197  A    between atoms: _455  and  _456
REMARK  198  A    between atoms: _456  and  _457
REMARK  199  A    between atoms: _466  and  _468
REMARK  200  A    between atoms: _468  and  _469
REMARK  201  A    between atoms: _468  and  _471
REMARK  202  A    between atoms: _471  and  _472
REMARK  203  A    between atoms: _477  and  _478
REMARK  204  A    between atoms: _480  and  _482
REMARK  205  A    between atoms: _482  and  _483
REMARK  206  A    between atoms: _482  and  _485
REMARK  207  A    between atoms: _485  and  _486
REMARK  208  A    between atoms: _486  and  _487
REMARK                            x       y       z     vdW  Elec       q    Type
REMARK                         _______ _______ _______ _____ _____    ______ ____
ROOT
ATOM      1  O   HOH     1      23.670 -17.391 -44.179  0.00  0.00    +0.000 OA
ENDROOT
TORSDOF 0
