REMARK  Name = ../refined-set-2016/1hih/1hih_pocket.pdb
REMARK  224 active torsions:
REMARK  status: ('A' for Active; 'I' for Inactive)
REMARK    1  A    between atoms: _1  and  _3
REMARK    2  A    between atoms: _3  and  _4
REMARK    3  A    between atoms: _3  and  _6
REMARK    4  A    between atoms: _6  and  _7
REMARK    5  A    between atoms: _7  and  _8
REMARK    6  A    between atoms: _8  and  _9
REMARK    7  A    between atoms: _18  and  _20
REMARK    8  A    between atoms: _20  and  _21
REMARK    9  A    between atoms: _20  and  _23
REMARK   10  A    between atoms: _23  and  _24
REMARK   11  A    between atoms: _27  and  _29
REMARK   12  A    between atoms: _29  and  _30
REMARK   13  A    between atoms: _29  and  _32
REMARK   14  A    between atoms: _32  and  _33
REMARK   15  A    between atoms: _36  and  _38
REMARK   16  A    between atoms: _38  and  _39
REMARK   17  A    between atoms: _38  and  _41
REMARK   18  A    between atoms: _41  and  _42
REMARK   19  A    between atoms: _45  and  _47
REMARK   20  A    between atoms: _47  and  _48
REMARK   21  A    between atoms: _47  and  _50
REMARK   22  A    between atoms: _50  and  _51
REMARK   23  A    between atoms: _54  and  _56
REMARK   24  A    between atoms: _56  and  _57
REMARK   25  A    between atoms: _59  and  _61
REMARK   26  A    between atoms: _61  and  _62
REMARK   27  A    between atoms: _65  and  _67
REMARK   28  A    between atoms: _67  and  _68
REMARK   29  A    between atoms: _67  and  _70
REMARK   30  A    between atoms: _70  and  _71
REMARK   31  A    between atoms: _74  and  _76
REMARK   32  A    between atoms: _76  and  _77
REMARK   33  A    between atoms: _76  and  _79
REMARK   34  A    between atoms: _79  and  _80
REMARK   35  A    between atoms: _83  and  _85
REMARK   36  A    between atoms: _85  and  _86
REMARK   37  A    between atoms: _85  and  _88
REMARK   38  A    between atoms: _88  and  _89
REMARK   39  A    between atoms: _92  and  _94
REMARK   40  A    between atoms: _94  and  _95
REMARK   41  A    between atoms: _94  and  _97
REMARK   42  A    between atoms: _100  and  _102
REMARK   43  A    between atoms: _102  and  _103
REMARK   44  A    between atoms: _102  and  _105
REMARK   45  A    between atoms: _105  and  _106
REMARK   46  A    between atoms: _106  and  _107
REMARK   47  A    between atoms: _107  and  _108
REMARK   48  A    between atoms: _108  and  _109
REMARK   49  A    between atoms: _113  and  _115
REMARK   50  A    between atoms: _115  and  _116
REMARK   51  A    between atoms: _115  and  _118
REMARK   52  A    between atoms: _118  and  _119
REMARK   53  A    between atoms: _122  and  _124
REMARK   54  A    between atoms: _124  and  _125
REMARK   55  A    between atoms: _127  and  _129
REMARK   56  A    between atoms: _129  and  _130
REMARK   57  A    between atoms: _132  and  _134
REMARK   58  A    between atoms: _134  and  _135
REMARK   59  A    between atoms: _134  and  _137
REMARK   60  A    between atoms: _137  and  _138
REMARK   61  A    between atoms: _141  and  _143
REMARK   62  A    between atoms: _143  and  _144
REMARK   63  A    between atoms: _146  and  _148
REMARK   64  A    between atoms: _148  and  _149
REMARK   65  A    between atoms: _151  and  _153
REMARK   66  A    between atoms: _153  and  _154
REMARK   67  A    between atoms: _153  and  _156
REMARK   68  A    between atoms: _156  and  _157
REMARK   69  A    between atoms: _163  and  _165
REMARK   70  A    between atoms: _165  and  _166
REMARK   71  A    between atoms: _165  and  _168
REMARK   72  A    between atoms: _168  and  _169
REMARK   73  A    between atoms: _172  and  _174
REMARK   74  A    between atoms: _174  and  _175
REMARK   75  A    between atoms: _174  and  _177
REMARK   76  A    between atoms: _177  and  _178
REMARK   77  A    between atoms: _181  and  _183
REMARK   78  A    between atoms: _183  and  _184
REMARK   79  A    between atoms: _183  and  _186
REMARK   80  A    between atoms: _186  and  _187
REMARK   81  A    between atoms: _191  and  _192
REMARK   82  A    between atoms: _197  and  _199
REMARK   83  A    between atoms: _199  and  _200
REMARK   84  A    between atoms: _199  and  _202
REMARK   85  A    between atoms: _205  and  _207
REMARK   86  A    between atoms: _207  and  _208
REMARK   87  A    between atoms: _207  and  _210
REMARK   88  A    between atoms: _210  and  _211
REMARK   89  A    between atoms: _216  and  _218
REMARK   90  A    between atoms: _218  and  _219
REMARK   91  A    between atoms: _218  and  _221
REMARK   92  A    between atoms: _221  and  _222
REMARK   93  A    between atoms: _225  and  _227
REMARK   94  A    between atoms: _227  and  _228
REMARK   95  A    between atoms: _227  and  _230
REMARK   96  A    between atoms: _230  and  _231
REMARK   97  A    between atoms: _234  and  _236
REMARK   98  A    between atoms: _236  and  _237
REMARK   99  A    between atoms: _239  and  _241
REMARK  100  A    between atoms: _241  and  _242
REMARK  101  A    between atoms: _241  and  _244
REMARK  102  A    between atoms: _244  and  _245
REMARK  103  A    between atoms: _245  and  _246
REMARK  104  A    between atoms: _246  and  _247
REMARK  105  A    between atoms: _256  and  _258
REMARK  106  A    between atoms: _258  and  _259
REMARK  107  A    between atoms: _258  and  _261
REMARK  108  A    between atoms: _261  and  _262
REMARK  109  A    between atoms: _267  and  _269
REMARK  110  A    between atoms: _269  and  _270
REMARK  111  A    between atoms: _269  and  _272
REMARK  112  A    between atoms: _272  and  _273
REMARK  113  A    between atoms: _273  and  _274
REMARK  114  A    between atoms: _274  and  _275
REMARK  115  A    between atoms: _284  and  _286
REMARK  116  A    between atoms: _286  and  _287
REMARK  117  A    between atoms: _286  and  _289
REMARK  118  A    between atoms: _289  and  _290
REMARK  119  A    between atoms: _293  and  _295
REMARK  120  A    between atoms: _295  and  _296
REMARK  121  A    between atoms: _295  and  _298
REMARK  122  A    between atoms: _298  and  _299
REMARK  123  A    between atoms: _302  and  _304
REMARK  124  A    between atoms: _304  and  _305
REMARK  125  A    between atoms: _304  and  _307
REMARK  126  A    between atoms: _307  and  _308
REMARK  127  A    between atoms: _311  and  _313
REMARK  128  A    between atoms: _313  and  _314
REMARK  129  A    between atoms: _313  and  _316
REMARK  130  A    between atoms: _316  and  _317
REMARK  131  A    between atoms: _320  and  _322
REMARK  132  A    between atoms: _322  and  _323
REMARK  133  A    between atoms: _322  and  _325
REMARK  134  A    between atoms: _325  and  _326
REMARK  135  A    between atoms: _329  and  _331
REMARK  136  A    between atoms: _331  and  _332
REMARK  137  A    between atoms: _334  and  _336
REMARK  138  A    between atoms: _336  and  _337
REMARK  139  A    between atoms: _340  and  _342
REMARK  140  A    between atoms: _342  and  _343
REMARK  141  A    between atoms: _342  and  _345
REMARK  142  A    between atoms: _345  and  _346
REMARK  143  A    between atoms: _349  and  _351
REMARK  144  A    between atoms: _351  and  _352
REMARK  145  A    between atoms: _351  and  _354
REMARK  146  A    between atoms: _354  and  _355
REMARK  147  A    between atoms: _358  and  _360
REMARK  148  A    between atoms: _360  and  _361
REMARK  149  A    between atoms: _360  and  _363
REMARK  150  A    between atoms: _363  and  _364
REMARK  151  A    between atoms: _367  and  _369
REMARK  152  A    between atoms: _369  and  _370
REMARK  153  A    between atoms: _369  and  _372
REMARK  154  A    between atoms: _375  and  _377
REMARK  155  A    between atoms: _377  and  _378
REMARK  156  A    between atoms: _377  and  _380
REMARK  157  A    between atoms: _380  and  _381
REMARK  158  A    between atoms: _381  and  _382
REMARK  159  A    between atoms: _382  and  _383
REMARK  160  A    between atoms: _383  and  _384
REMARK  161  A    between atoms: _388  and  _390
REMARK  162  A    between atoms: _390  and  _391
REMARK  163  A    between atoms: _390  and  _393
REMARK  164  A    between atoms: _393  and  _394
REMARK  165  A    between atoms: _394  and  _395
REMARK  166  A    between atoms: _397  and  _399
REMARK  167  A    between atoms: _399  and  _400
REMARK  168  A    between atoms: _399  and  _402
REMARK  169  A    between atoms: _402  and  _403
REMARK  170  A    between atoms: _406  and  _408
REMARK  171  A    between atoms: _408  and  _409
REMARK  172  A    between atoms: _411  and  _413
REMARK  173  A    between atoms: _413  and  _414
REMARK  174  A    between atoms: _416  and  _418
REMARK  175  A    between atoms: _418  and  _419
REMARK  176  A    between atoms: _418  and  _421
REMARK  177  A    between atoms: _421  and  _422
REMARK  178  A    between atoms: _425  and  _427
REMARK  179  A    between atoms: _427  and  _428
REMARK  180  A    between atoms: _430  and  _432
REMARK  181  A    between atoms: _432  and  _433
REMARK  182  A    between atoms: _435  and  _437
REMARK  183  A    between atoms: _437  and  _438
REMARK  184  A    between atoms: _437  and  _440
REMARK  185  A    between atoms: _440  and  _441
REMARK  186  A    between atoms: _447  and  _449
REMARK  187  A    between atoms: _449  and  _450
REMARK  188  A    between atoms: _449  and  _452
REMARK  189  A    between atoms: _452  and  _453
REMARK  190  A    between atoms: _456  and  _458
REMARK  191  A    between atoms: _458  and  _459
REMARK  192  A    between atoms: _458  and  _461
REMARK  193  A    between atoms: _464  and  _466
REMARK  194  A    between atoms: _466  and  _467
REMARK  195  A    between atoms: _466  and  _469
REMARK  196  A    between atoms: _469  and  _470
REMARK  197  A    between atoms: _473  and  _475
REMARK  198  A    between atoms: _475  and  _476
REMARK  199  A    between atoms: _475  and  _478
REMARK  200  A    between atoms: _478  and  _479
REMARK  201  A    between atoms: _483  and  _484
REMARK  202  A    between atoms: _489  and  _491
REMARK  203  A    between atoms: _491  and  _492
REMARK  204  A    between atoms: _491  and  _494
REMARK  205  A    between atoms: _497  and  _499
REMARK  206  A    between atoms: _499  and  _500
REMARK  207  A    between atoms: _499  and  _502
REMARK  208  A    between atoms: _502  and  _503
REMARK  209  A    between atoms: _508  and  _510
REMARK  210  A    between atoms: _510  and  _511
REMARK  211  A    between atoms: _510  and  _513
REMARK  212  A    between atoms: _513  and  _514
REMARK  213  A    between atoms: _517  and  _519
REMARK  214  A    between atoms: _519  and  _520
REMARK  215  A    between atoms: _519  and  _522
REMARK  216  A    between atoms: _522  and  _523
REMARK  217  A    between atoms: _526  and  _528
REMARK  218  A    between atoms: _528  and  _529
REMARK  219  A    between atoms: _531  and  _533
REMARK  220  A    between atoms: _533  and  _534
REMARK  221  A    between atoms: _533  and  _536
REMARK  222  A    between atoms: _536  and  _537
REMARK  223  A    between atoms: _537  and  _538
REMARK  224  A    between atoms: _538  and  _539
REMARK                            x       y       z     vdW  Elec       q    Type
REMARK                         _______ _______ _______ _____ _____    ______ ____
ROOT
ATOM      1  NE  ARG A   1       4.060  -7.506  22.629  0.00  0.00    -0.265 N 
ATOM      2  HE  ARG A   1       5.078  -7.367  22.790  0.00  0.00    +0.259 HD
ATOM      3  CZ  ARG A   1       3.688  -8.192  21.547  0.00  0.00    +0.342 C 
ATOM      4  NH2 ARG A   1       2.397  -8.399  21.314  0.00  0.00    -0.292 N 
ATOM      5 HH21 ARG A   1       1.684  -8.027  21.973  0.00  0.00    +0.255 HD
ATOM      6 HH22 ARG A   1       2.100  -8.933  20.473  0.00  0.00    +0.255 HD
ATOM      7  NH1 ARG A   1       4.599  -8.636  20.669  0.00  0.00    -0.292 N 
ATOM      8 HH11 ARG A   1       5.609  -8.447  20.827  0.00  0.00    +0.255 HD
ATOM      9 HH12 ARG A   1       4.295  -9.170  19.830  0.00  0.00    +0.255 HD
ENDROOT
BRANCH   1  10
ATOM     10  CD  ARG A   1       3.131  -6.937  23.602  0.00  0.00    +0.174 C 
BRANCH  10  11
ATOM     11  CG  ARG A   1       3.856  -6.144  24.689  0.00  0.00    +0.045 C 
BRANCH  11  12
ATOM     12  CB  ARG A   1       2.852  -5.467  25.578  0.00  0.00    +0.029 C 
BRANCH  12  13
ATOM     13  CA  ARG A   1       3.463  -4.496  26.590  0.00  0.00    +0.133 C 
BRANCH  13  14
ATOM     14  N   ARG A   1       4.095  -5.215  27.670  0.00  0.00    -0.239 NA
ATOM     15  H   ARG A   1       4.089  -6.255  27.675  0.00  0.00    +0.142 HD
ENDBRANCH  13  14
BRANCH  13  16
ATOM     16  C   ARG A   1       2.383  -3.584  27.202  0.00  0.00    +0.224 C 
ATOM     17  O   ARG A   1       1.675  -3.949  28.156  0.00  0.00    -0.287 OA
ENDBRANCH  13  16
ENDBRANCH  12  13
ENDBRANCH  11  12
ENDBRANCH  10  11
ENDBRANCH   1  10
TORSDOF 6
REMARK  Name = ../refined-set-2016/1hih/1hih_pocket.pdb
REMARK  224 active torsions:
REMARK  status: ('A' for Active; 'I' for Inactive)
REMARK    1  A    between atoms: _1  and  _3
REMARK    2  A    between atoms: _3  and  _4
REMARK    3  A    between atoms: _3  and  _6
REMARK    4  A    between atoms: _6  and  _7
REMARK    5  A    between atoms: _7  and  _8
REMARK    6  A    between atoms: _8  and  _9
REMARK    7  A    between atoms: _18  and  _20
REMARK    8  A    between atoms: _20  and  _21
REMARK    9  A    between atoms: _20  and  _23
REMARK   10  A    between atoms: _23  and  _24
REMARK   11  A    between atoms: _27  and  _29
REMARK   12  A    between atoms: _29  and  _30
REMARK   13  A    between atoms: _29  and  _32
REMARK   14  A    between atoms: _32  and  _33
REMARK   15  A    between atoms: _36  and  _38
REMARK   16  A    between atoms: _38  and  _39
REMARK   17  A    between atoms: _38  and  _41
REMARK   18  A    between atoms: _41  and  _42
REMARK   19  A    between atoms: _45  and  _47
REMARK   20  A    between atoms: _47  and  _48
REMARK   21  A    between atoms: _47  and  _50
REMARK   22  A    between atoms: _50  and  _51
REMARK   23  A    between atoms: _54  and  _56
REMARK   24  A    between atoms: _56  and  _57
REMARK   25  A    between atoms: _59  and  _61
REMARK   26  A    between atoms: _61  and  _62
REMARK   27  A    between atoms: _65  and  _67
REMARK   28  A    between atoms: _67  and  _68
REMARK   29  A    between atoms: _67  and  _70
REMARK   30  A    between atoms: _70  and  _71
REMARK   31  A    between atoms: _74  and  _76
REMARK   32  A    between atoms: _76  and  _77
REMARK   33  A    between atoms: _76  and  _79
REMARK   34  A    between atoms: _79  and  _80
REMARK   35  A    between atoms: _83  and  _85
REMARK   36  A    between atoms: _85  and  _86
REMARK   37  A    between atoms: _85  and  _88
REMARK   38  A    between atoms: _88  and  _89
REMARK   39  A    between atoms: _92  and  _94
REMARK   40  A    between atoms: _94  and  _95
REMARK   41  A    between atoms: _94  and  _97
REMARK   42  A    between atoms: _100  and  _102
REMARK   43  A    between atoms: _102  and  _103
REMARK   44  A    between atoms: _102  and  _105
REMARK   45  A    between atoms: _105  and  _106
REMARK   46  A    between atoms: _106  and  _107
REMARK   47  A    between atoms: _107  and  _108
REMARK   48  A    between atoms: _108  and  _109
REMARK   49  A    between atoms: _113  and  _115
REMARK   50  A    between atoms: _115  and  _116
REMARK   51  A    between atoms: _115  and  _118
REMARK   52  A    between atoms: _118  and  _119
REMARK   53  A    between atoms: _122  and  _124
REMARK   54  A    between atoms: _124  and  _125
REMARK   55  A    between atoms: _127  and  _129
REMARK   56  A    between atoms: _129  and  _130
REMARK   57  A    between atoms: _132  and  _134
REMARK   58  A    between atoms: _134  and  _135
REMARK   59  A    between atoms: _134  and  _137
REMARK   60  A    between atoms: _137  and  _138
REMARK   61  A    between atoms: _141  and  _143
REMARK   62  A    between atoms: _143  and  _144
REMARK   63  A    between atoms: _146  and  _148
REMARK   64  A    between atoms: _148  and  _149
REMARK   65  A    between atoms: _151  and  _153
REMARK   66  A    between atoms: _153  and  _154
REMARK   67  A    between atoms: _153  and  _156
REMARK   68  A    between atoms: _156  and  _157
REMARK   69  A    between atoms: _163  and  _165
REMARK   70  A    between atoms: _165  and  _166
REMARK   71  A    between atoms: _165  and  _168
REMARK   72  A    between atoms: _168  and  _169
REMARK   73  A    between atoms: _172  and  _174
REMARK   74  A    between atoms: _174  and  _175
REMARK   75  A    between atoms: _174  and  _177
REMARK   76  A    between atoms: _177  and  _178
REMARK   77  A    between atoms: _181  and  _183
REMARK   78  A    between atoms: _183  and  _184
REMARK   79  A    between atoms: _183  and  _186
REMARK   80  A    between atoms: _186  and  _187
REMARK   81  A    between atoms: _191  and  _192
REMARK   82  A    between atoms: _197  and  _199
REMARK   83  A    between atoms: _199  and  _200
REMARK   84  A    between atoms: _199  and  _202
REMARK   85  A    between atoms: _205  and  _207
REMARK   86  A    between atoms: _207  and  _208
REMARK   87  A    between atoms: _207  and  _210
REMARK   88  A    between atoms: _210  and  _211
REMARK   89  A    between atoms: _216  and  _218
REMARK   90  A    between atoms: _218  and  _219
REMARK   91  A    between atoms: _218  and  _221
REMARK   92  A    between atoms: _221  and  _222
REMARK   93  A    between atoms: _225  and  _227
REMARK   94  A    between atoms: _227  and  _228
REMARK   95  A    between atoms: _227  and  _230
REMARK   96  A    between atoms: _230  and  _231
REMARK   97  A    between atoms: _234  and  _236
REMARK   98  A    between atoms: _236  and  _237
REMARK   99  A    between atoms: _239  and  _241
REMARK  100  A    between atoms: _241  and  _242
REMARK  101  A    between atoms: _241  and  _244
REMARK  102  A    between atoms: _244  and  _245
REMARK  103  A    between atoms: _245  and  _246
REMARK  104  A    between atoms: _246  and  _247
REMARK  105  A    between atoms: _256  and  _258
REMARK  106  A    between atoms: _258  and  _259
REMARK  107  A    between atoms: _258  and  _261
REMARK  108  A    between atoms: _261  and  _262
REMARK  109  A    between atoms: _267  and  _269
REMARK  110  A    between atoms: _269  and  _270
REMARK  111  A    between atoms: _269  and  _272
REMARK  112  A    between atoms: _272  and  _273
REMARK  113  A    between atoms: _273  and  _274
REMARK  114  A    between atoms: _274  and  _275
REMARK  115  A    between atoms: _284  and  _286
REMARK  116  A    between atoms: _286  and  _287
REMARK  117  A    between atoms: _286  and  _289
REMARK  118  A    between atoms: _289  and  _290
REMARK  119  A    between atoms: _293  and  _295
REMARK  120  A    between atoms: _295  and  _296
REMARK  121  A    between atoms: _295  and  _298
REMARK  122  A    between atoms: _298  and  _299
REMARK  123  A    between atoms: _302  and  _304
REMARK  124  A    between atoms: _304  and  _305
REMARK  125  A    between atoms: _304  and  _307
REMARK  126  A    between atoms: _307  and  _308
REMARK  127  A    between atoms: _311  and  _313
REMARK  128  A    between atoms: _313  and  _314
REMARK  129  A    between atoms: _313  and  _316
REMARK  130  A    between atoms: _316  and  _317
REMARK  131  A    between atoms: _320  and  _322
REMARK  132  A    between atoms: _322  and  _323
REMARK  133  A    between atoms: _322  and  _325
REMARK  134  A    between atoms: _325  and  _326
REMARK  135  A    between atoms: _329  and  _331
REMARK  136  A    between atoms: _331  and  _332
REMARK  137  A    between atoms: _334  and  _336
REMARK  138  A    between atoms: _336  and  _337
REMARK  139  A    between atoms: _340  and  _342
REMARK  140  A    between atoms: _342  and  _343
REMARK  141  A    between atoms: _342  and  _345
REMARK  142  A    between atoms: _345  and  _346
REMARK  143  A    between atoms: _349  and  _351
REMARK  144  A    between atoms: _351  and  _352
REMARK  145  A    between atoms: _351  and  _354
REMARK  146  A    between atoms: _354  and  _355
REMARK  147  A    between atoms: _358  and  _360
REMARK  148  A    between atoms: _360  and  _361
REMARK  149  A    between atoms: _360  and  _363
REMARK  150  A    between atoms: _363  and  _364
REMARK  151  A    between atoms: _367  and  _369
REMARK  152  A    between atoms: _369  and  _370
REMARK  153  A    between atoms: _369  and  _372
REMARK  154  A    between atoms: _375  and  _377
REMARK  155  A    between atoms: _377  and  _378
REMARK  156  A    between atoms: _377  and  _380
REMARK  157  A    between atoms: _380  and  _381
REMARK  158  A    between atoms: _381  and  _382
REMARK  159  A    between atoms: _382  and  _383
REMARK  160  A    between atoms: _383  and  _384
REMARK  161  A    between atoms: _388  and  _390
REMARK  162  A    between atoms: _390  and  _391
REMARK  163  A    between atoms: _390  and  _393
REMARK  164  A    between atoms: _393  and  _394
REMARK  165  A    between atoms: _394  and  _395
REMARK  166  A    between atoms: _397  and  _399
REMARK  167  A    between atoms: _399  and  _400
REMARK  168  A    between atoms: _399  and  _402
REMARK  169  A    between atoms: _402  and  _403
REMARK  170  A    between atoms: _406  and  _408
REMARK  171  A    between atoms: _408  and  _409
REMARK  172  A    between atoms: _411  and  _413
REMARK  173  A    between atoms: _413  and  _414
REMARK  174  A    between atoms: _416  and  _418
REMARK  175  A    between atoms: _418  and  _419
REMARK  176  A    between atoms: _418  and  _421
REMARK  177  A    between atoms: _421  and  _422
REMARK  178  A    between atoms: _425  and  _427
REMARK  179  A    between atoms: _427  and  _428
REMARK  180  A    between atoms: _430  and  _432
REMARK  181  A    between atoms: _432  and  _433
REMARK  182  A    between atoms: _435  and  _437
REMARK  183  A    between atoms: _437  and  _438
REMARK  184  A    between atoms: _437  and  _440
REMARK  185  A    between atoms: _440  and  _441
REMARK  186  A    between atoms: _447  and  _449
REMARK  187  A    between atoms: _449  and  _450
REMARK  188  A    between atoms: _449  and  _452
REMARK  189  A    between atoms: _452  and  _453
REMARK  190  A    between atoms: _456  and  _458
REMARK  191  A    between atoms: _458  and  _459
REMARK  192  A    between atoms: _458  and  _461
REMARK  193  A    between atoms: _464  and  _466
REMARK  194  A    between atoms: _466  and  _467
REMARK  195  A    between atoms: _466  and  _469
REMARK  196  A    between atoms: _469  and  _470
REMARK  197  A    between atoms: _473  and  _475
REMARK  198  A    between atoms: _475  and  _476
REMARK  199  A    between atoms: _475  and  _478
REMARK  200  A    between atoms: _478  and  _479
REMARK  201  A    between atoms: _483  and  _484
REMARK  202  A    between atoms: _489  and  _491
REMARK  203  A    between atoms: _491  and  _492
REMARK  204  A    between atoms: _491  and  _494
REMARK  205  A    between atoms: _497  and  _499
REMARK  206  A    between atoms: _499  and  _500
REMARK  207  A    between atoms: _499  and  _502
REMARK  208  A    between atoms: _502  and  _503
REMARK  209  A    between atoms: _508  and  _510
REMARK  210  A    between atoms: _510  and  _511
REMARK  211  A    between atoms: _510  and  _513
REMARK  212  A    between atoms: _513  and  _514
REMARK  213  A    between atoms: _517  and  _519
REMARK  214  A    between atoms: _519  and  _520
REMARK  215  A    between atoms: _519  and  _522
REMARK  216  A    between atoms: _522  and  _523
REMARK  217  A    between atoms: _526  and  _528
REMARK  218  A    between atoms: _528  and  _529
REMARK  219  A    between atoms: _531  and  _533
REMARK  220  A    between atoms: _533  and  _534
REMARK  221  A    between atoms: _533  and  _536
REMARK  222  A    between atoms: _536  and  _537
REMARK  223  A    between atoms: _537  and  _538
REMARK  224  A    between atoms: _538  and  _539
REMARK                            x       y       z     vdW  Elec       q    Type
REMARK                         _______ _______ _______ _____ _____    ______ ____
ROOT
ATOM      1  C   GLY A   5       4.490   3.658  15.640  0.00  0.00    +0.243 C 
ATOM      2  N   ALA A   6       3.208   3.878  15.923  0.00  0.00    -0.297 N 
ATOM      3  H   ALA A   6       2.928   4.137  16.891  0.00  0.00    +0.150 HD
ATOM      4  O   GLY A   5       4.869   3.330  14.509  0.00  0.00    -0.273 OA
ENDROOT
BRANCH   2   5
ATOM      5  CA  ALA A   6       2.195   3.757  14.882  0.00  0.00    +0.149 C 
ATOM      6  CB  ALA A   6       1.115   2.772  15.295  0.00  0.00    +0.031 C 
BRANCH   5   7
ATOM      7  C   ALA A   6       1.550   5.100  14.579  0.00  0.00    +0.241 C 
ATOM      8  O   ALA A   6       1.093   5.802  15.517  0.00  0.00    -0.273 OA
ATOM      9  N   ASP A   7       1.473   5.453  13.284  0.00  0.00    -0.297 N 
ATOM     10  H   ASP A   7       1.881   4.833  12.556  0.00  0.00    +0.150 HD
BRANCH   9  11
ATOM     11  CA  ASP A   7       0.816   6.710  12.886  0.00  0.00    +0.160 C 
BRANCH  11  12
ATOM     12  C   ASP A   7      -0.719   6.538  12.961  0.00  0.00    +0.241 C 
ATOM     13  O   ASP A   7      -1.442   7.480  13.292  0.00  0.00    -0.273 OA
ATOM     14  N   ASP A   8      -1.198   5.328  12.677  0.00  0.00    -0.297 N 
ATOM     15  H   ASP A   8      -0.530   4.565  12.445  0.00  0.00    +0.150 HD
BRANCH  14  16
ATOM     16  CA  ASP A   8      -2.619   5.039  12.680  0.00  0.00    +0.160 C 
BRANCH  16  17
ATOM     17  C   ASP A   8      -3.039   4.001  13.697  0.00  0.00    +0.241 C 
ATOM     18  O   ASP A   8      -2.222   3.275  14.246  0.00  0.00    -0.273 OA
ATOM     19  N   THR A   9      -4.346   3.923  13.888  0.00  0.00    -0.295 N 
ATOM     20  H   THR A   9      -4.957   4.572  13.352  0.00  0.00    +0.150 HD
BRANCH  19  21
ATOM     21  CA  THR A   9      -4.979   2.991  14.796  0.00  0.00    +0.176 C 
BRANCH  21  22
ATOM     22  C   THR A   9      -5.532   1.852  13.945  0.00  0.00    +0.243 C 
ATOM     23  N   VAL A  10      -5.084   0.635  14.242  0.00  0.00    -0.298 N 
ATOM     24  H   VAL A  10      -4.398   0.531  15.017  0.00  0.00    +0.150 HD
ATOM     25  O   THR A   9      -6.319   2.080  13.025  0.00  0.00    -0.273 OA
BRANCH  23  26
ATOM     26  CA  VAL A  10      -5.516  -0.556  13.526  0.00  0.00    +0.137 C 
BRANCH  26  27
ATOM     27  CB  VAL A  10      -4.353  -1.213  12.726  0.00  0.00    +0.026 C 
ATOM     28  CG2 VAL A  10      -3.500  -0.162  12.093  0.00  0.00    +0.002 C 
ATOM     29  CG1 VAL A  10      -4.924  -2.105  11.648  0.00  0.00    +0.002 C 
ENDBRANCH  26  27
BRANCH  26  30
ATOM     30  C   VAL A  10      -6.066  -1.610  14.480  0.00  0.00    +0.227 C 
ATOM     31  O   VAL A  10      -5.393  -2.045  15.389  0.00  0.00    -0.286 OA
ENDBRANCH  26  30
ENDBRANCH  23  26
ENDBRANCH  21  22
BRANCH  21  32
ATOM     32  CB  THR A   9      -6.128   3.704  15.550  0.00  0.00    +0.137 C 
ATOM     33  CG2 THR A   9      -6.965   2.722  16.350  0.00  0.00    +0.034 C 
BRANCH  32  34
ATOM     34  OG1 THR A   9      -5.560   4.696  16.410  0.00  0.00    -0.382 OA
ATOM     35  HG1 THR A   9      -5.054   5.351  15.867  0.00  0.00    +0.210 HD
ENDBRANCH  32  34
ENDBRANCH  21  32
ENDBRANCH  19  21
ENDBRANCH  16  17
BRANCH  16  36
ATOM     36  CB  ASP A   8      -3.028   4.561  11.290  0.00  0.00    +0.143 C 
BRANCH  36  37
ATOM     37  CG  ASP A   8      -2.615   5.550  10.199  0.00  0.00    +0.367 C 
ATOM     38  OD2 ASP A   8      -2.961   6.738  10.314  0.00  0.00    -0.246 OA
ATOM     39  OD1 ASP A   8      -1.899   5.151   9.263  0.00  0.00    -0.246 OA
ENDBRANCH  36  37
ENDBRANCH  16  36
ENDBRANCH  14  16
ENDBRANCH  11  12
BRANCH  11  40
ATOM     40  CB  ASP A   7       1.157   7.107  11.451  0.00  0.00    +0.143 C 
BRANCH  40  41
ATOM     41  CG  ASP A   7       2.619   7.354  11.231  0.00  0.00    +0.367 C 
ATOM     42  OD2 ASP A   7       3.372   7.639  12.174  0.00  0.00    -0.246 OA
ATOM     43  OD1 ASP A   7       3.027   7.228  10.076  0.00  0.00    -0.246 OA
ENDBRANCH  40  41
ENDBRANCH  11  40
ENDBRANCH   9  11
ENDBRANCH   5   7
ENDBRANCH   2   5
BRANCH   1  44
ATOM     44  CA  GLY A   5       5.489   3.840  16.772  0.00  0.00    +0.176 C 
BRANCH  44  46
ATOM     45  C   THR A   4       4.549   5.368  18.422  0.00  0.00    +0.243 C 
ATOM     46  N   GLY A   5       4.807   4.123  18.027  0.00  0.00    -0.295 N 
ATOM     47  H   GLY A   5       4.513   3.330  18.632  0.00  0.00    +0.150 HD
ATOM     48  O   THR A   4       4.940   6.348  17.798  0.00  0.00    -0.273 OA
BRANCH  45  49
ATOM     49  CA  THR A   4       3.794   5.533  19.766  0.00  0.00    +0.176 C 
BRANCH  49  51
ATOM     50  C   ASP A   3       2.237   3.673  19.701  0.00  0.00    +0.241 C 
ATOM     51  N   THR A   4       3.292   4.260  20.269  0.00  0.00    -0.295 N 
ATOM     52  H   THR A   4       3.761   3.805  21.078  0.00  0.00    +0.150 HD
ATOM     53  O   ASP A   3       1.652   4.171  18.752  0.00  0.00    -0.273 OA
BRANCH  50  54
ATOM     54  CA  ASP A   3       1.769   2.337  20.265  0.00  0.00    +0.160 C 
BRANCH  54  57
ATOM     55  C   LEU A   2       0.643   2.047  22.393  0.00  0.00    +0.241 C 
ATOM     56  O   LEU A   2       1.685   1.768  22.988  0.00  0.00    -0.273 OA
ATOM     57  N   ASP A   3       0.609   2.423  21.127  0.00  0.00    -0.297 N 
ATOM     58  H   ASP A   3      -0.281   2.793  20.736  0.00  0.00    +0.150 HD
BRANCH  55  59
ATOM     59  CA  LEU A   2      -0.688   2.041  23.104  0.00  0.00    +0.149 C 
BRANCH  59  61
ATOM     60  C   LEU A   1      -1.427  -0.164  22.318  0.00  0.00    +0.238 C 
ATOM     61  N   LEU A   2      -0.896   0.593  23.283  0.00  0.00    -0.297 N 
ATOM     62  H   LEU A   2      -0.623   0.149  24.183  0.00  0.00    +0.150 HD
ATOM     63  O   LEU A   1      -1.837   0.313  21.257  0.00  0.00    -0.274 OA
BRANCH  60  64
ATOM     64  CA  LEU A   1      -1.556  -1.685  22.566  0.00  0.00    +0.145 C 
BRANCH  64  65
ATOM     65  N   LEU A   1      -2.879  -2.152  22.217  0.00  0.00    -0.238 NA
ATOM     66  H   LEU A   1      -3.073  -2.389  21.223  0.00  0.00    +0.142 HD
ENDBRANCH  64  65
BRANCH  64  67
ATOM     67  CB  LEU A   1      -0.596  -2.485  21.661  0.00  0.00    +0.026 C 
BRANCH  67  68
ATOM     68  CG  LEU A   1       0.919  -2.398  21.713  0.00  0.00    +0.002 C 
ATOM     69  CD2 LEU A   1       1.403  -3.134  22.931  0.00  0.00    +0.000 C 
ATOM     70  CD1 LEU A   1       1.453  -3.083  20.497  0.00  0.00    +0.000 C 
ENDBRANCH  67  68
ENDBRANCH  64  67
ENDBRANCH  60  64
ENDBRANCH  59  61
BRANCH  59  71
ATOM     71  CB  LEU A   2      -0.581   2.770  24.441  0.00  0.00    +0.029 C 
BRANCH  71  72
ATOM     72  CG  LEU A   2      -1.805   2.628  25.344  0.00  0.00    +0.002 C 
ATOM     73  CD2 LEU A   2      -1.548   3.419  26.614  0.00  0.00    +0.000 C 
ATOM     74  CD1 LEU A   2      -3.069   3.107  24.662  0.00  0.00    +0.000 C 
ENDBRANCH  71  72
ENDBRANCH  59  71
ENDBRANCH  55  59
ENDBRANCH  54  57
BRANCH  54  75
ATOM     75  CB  ASP A   3       1.340   1.372  19.145  0.00  0.00    +0.143 C 
BRANCH  75  76
ATOM     76  CG  ASP A   3       2.462   0.982  18.198  0.00  0.00    +0.367 C 
ATOM     77  OD2 ASP A   3       3.619   1.384  18.371  0.00  0.00    -0.246 OA
ATOM     78  OD1 ASP A   3       2.159   0.268  17.241  0.00  0.00    -0.246 OA
ENDBRANCH  75  76
ENDBRANCH  54  75
ENDBRANCH  50  54
ENDBRANCH  49  51
BRANCH  49  79
ATOM     79  CB  THR A   4       4.712   6.202  20.793  0.00  0.00    +0.137 C 
ATOM     80  CG2 THR A   4       3.938   6.423  22.096  0.00  0.00    +0.034 C 
BRANCH  79  81
ATOM     81  OG1 THR A   4       5.873   5.375  21.025  0.00  0.00    -0.382 OA
ATOM     82  HG1 THR A   4       6.366   5.254  20.175  0.00  0.00    +0.210 HD
ENDBRANCH  79  81
ENDBRANCH  49  79
ENDBRANCH  45  49
ENDBRANCH  44  46
ENDBRANCH   1  44
TORSDOF 35
REMARK  Name = ../refined-set-2016/1hih/1hih_pocket.pdb
REMARK  224 active torsions:
REMARK  status: ('A' for Active; 'I' for Inactive)
REMARK    1  A    between atoms: _1  and  _3
REMARK    2  A    between atoms: _3  and  _4
REMARK    3  A    between atoms: _3  and  _6
REMARK    4  A    between atoms: _6  and  _7
REMARK    5  A    between atoms: _7  and  _8
REMARK    6  A    between atoms: _8  and  _9
REMARK    7  A    between atoms: _18  and  _20
REMARK    8  A    between atoms: _20  and  _21
REMARK    9  A    between atoms: _20  and  _23
REMARK   10  A    between atoms: _23  and  _24
REMARK   11  A    between atoms: _27  and  _29
REMARK   12  A    between atoms: _29  and  _30
REMARK   13  A    between atoms: _29  and  _32
REMARK   14  A    between atoms: _32  and  _33
REMARK   15  A    between atoms: _36  and  _38
REMARK   16  A    between atoms: _38  and  _39
REMARK   17  A    between atoms: _38  and  _41
REMARK   18  A    between atoms: _41  and  _42
REMARK   19  A    between atoms: _45  and  _47
REMARK   20  A    between atoms: _47  and  _48
REMARK   21  A    between atoms: _47  and  _50
REMARK   22  A    between atoms: _50  and  _51
REMARK   23  A    between atoms: _54  and  _56
REMARK   24  A    between atoms: _56  and  _57
REMARK   25  A    between atoms: _59  and  _61
REMARK   26  A    between atoms: _61  and  _62
REMARK   27  A    between atoms: _65  and  _67
REMARK   28  A    between atoms: _67  and  _68
REMARK   29  A    between atoms: _67  and  _70
REMARK   30  A    between atoms: _70  and  _71
REMARK   31  A    between atoms: _74  and  _76
REMARK   32  A    between atoms: _76  and  _77
REMARK   33  A    between atoms: _76  and  _79
REMARK   34  A    between atoms: _79  and  _80
REMARK   35  A    between atoms: _83  and  _85
REMARK   36  A    between atoms: _85  and  _86
REMARK   37  A    between atoms: _85  and  _88
REMARK   38  A    between atoms: _88  and  _89
REMARK   39  A    between atoms: _92  and  _94
REMARK   40  A    between atoms: _94  and  _95
REMARK   41  A    between atoms: _94  and  _97
REMARK   42  A    between atoms: _100  and  _102
REMARK   43  A    between atoms: _102  and  _103
REMARK   44  A    between atoms: _102  and  _105
REMARK   45  A    between atoms: _105  and  _106
REMARK   46  A    between atoms: _106  and  _107
REMARK   47  A    between atoms: _107  and  _108
REMARK   48  A    between atoms: _108  and  _109
REMARK   49  A    between atoms: _113  and  _115
REMARK   50  A    between atoms: _115  and  _116
REMARK   51  A    between atoms: _115  and  _118
REMARK   52  A    between atoms: _118  and  _119
REMARK   53  A    between atoms: _122  and  _124
REMARK   54  A    between atoms: _124  and  _125
REMARK   55  A    between atoms: _127  and  _129
REMARK   56  A    between atoms: _129  and  _130
REMARK   57  A    between atoms: _132  and  _134
REMARK   58  A    between atoms: _134  and  _135
REMARK   59  A    between atoms: _134  and  _137
REMARK   60  A    between atoms: _137  and  _138
REMARK   61  A    between atoms: _141  and  _143
REMARK   62  A    between atoms: _143  and  _144
REMARK   63  A    between atoms: _146  and  _148
REMARK   64  A    between atoms: _148  and  _149
REMARK   65  A    between atoms: _151  and  _153
REMARK   66  A    between atoms: _153  and  _154
REMARK   67  A    between atoms: _153  and  _156
REMARK   68  A    between atoms: _156  and  _157
REMARK   69  A    between atoms: _163  and  _165
REMARK   70  A    between atoms: _165  and  _166
REMARK   71  A    between atoms: _165  and  _168
REMARK   72  A    between atoms: _168  and  _169
REMARK   73  A    between atoms: _172  and  _174
REMARK   74  A    between atoms: _174  and  _175
REMARK   75  A    between atoms: _174  and  _177
REMARK   76  A    between atoms: _177  and  _178
REMARK   77  A    between atoms: _181  and  _183
REMARK   78  A    between atoms: _183  and  _184
REMARK   79  A    between atoms: _183  and  _186
REMARK   80  A    between atoms: _186  and  _187
REMARK   81  A    between atoms: _191  and  _192
REMARK   82  A    between atoms: _197  and  _199
REMARK   83  A    between atoms: _199  and  _200
REMARK   84  A    between atoms: _199  and  _202
REMARK   85  A    between atoms: _205  and  _207
REMARK   86  A    between atoms: _207  and  _208
REMARK   87  A    between atoms: _207  and  _210
REMARK   88  A    between atoms: _210  and  _211
REMARK   89  A    between atoms: _216  and  _218
REMARK   90  A    between atoms: _218  and  _219
REMARK   91  A    between atoms: _218  and  _221
REMARK   92  A    between atoms: _221  and  _222
REMARK   93  A    between atoms: _225  and  _227
REMARK   94  A    between atoms: _227  and  _228
REMARK   95  A    between atoms: _227  and  _230
REMARK   96  A    between atoms: _230  and  _231
REMARK   97  A    between atoms: _234  and  _236
REMARK   98  A    between atoms: _236  and  _237
REMARK   99  A    between atoms: _239  and  _241
REMARK  100  A    between atoms: _241  and  _242
REMARK  101  A    between atoms: _241  and  _244
REMARK  102  A    between atoms: _244  and  _245
REMARK  103  A    between atoms: _245  and  _246
REMARK  104  A    between atoms: _246  and  _247
REMARK  105  A    between atoms: _256  and  _258
REMARK  106  A    between atoms: _258  and  _259
REMARK  107  A    between atoms: _258  and  _261
REMARK  108  A    between atoms: _261  and  _262
REMARK  109  A    between atoms: _267  and  _269
REMARK  110  A    between atoms: _269  and  _270
REMARK  111  A    between atoms: _269  and  _272
REMARK  112  A    between atoms: _272  and  _273
REMARK  113  A    between atoms: _273  and  _274
REMARK  114  A    between atoms: _274  and  _275
REMARK  115  A    between atoms: _284  and  _286
REMARK  116  A    between atoms: _286  and  _287
REMARK  117  A    between atoms: _286  and  _289
REMARK  118  A    between atoms: _289  and  _290
REMARK  119  A    between atoms: _293  and  _295
REMARK  120  A    between atoms: _295  and  _296
REMARK  121  A    between atoms: _295  and  _298
REMARK  122  A    between atoms: _298  and  _299
REMARK  123  A    between atoms: _302  and  _304
REMARK  124  A    between atoms: _304  and  _305
REMARK  125  A    between atoms: _304  and  _307
REMARK  126  A    between atoms: _307  and  _308
REMARK  127  A    between atoms: _311  and  _313
REMARK  128  A    between atoms: _313  and  _314
REMARK  129  A    between atoms: _313  and  _316
REMARK  130  A    between atoms: _316  and  _317
REMARK  131  A    between atoms: _320  and  _322
REMARK  132  A    between atoms: _322  and  _323
REMARK  133  A    between atoms: _322  and  _325
REMARK  134  A    between atoms: _325  and  _326
REMARK  135  A    between atoms: _329  and  _331
REMARK  136  A    between atoms: _331  and  _332
REMARK  137  A    between atoms: _334  and  _336
REMARK  138  A    between atoms: _336  and  _337
REMARK  139  A    between atoms: _340  and  _342
REMARK  140  A    between atoms: _342  and  _343
REMARK  141  A    between atoms: _342  and  _345
REMARK  142  A    between atoms: _345  and  _346
REMARK  143  A    between atoms: _349  and  _351
REMARK  144  A    between atoms: _351  and  _352
REMARK  145  A    between atoms: _351  and  _354
REMARK  146  A    between atoms: _354  and  _355
REMARK  147  A    between atoms: _358  and  _360
REMARK  148  A    between atoms: _360  and  _361
REMARK  149  A    between atoms: _360  and  _363
REMARK  150  A    between atoms: _363  and  _364
REMARK  151  A    between atoms: _367  and  _369
REMARK  152  A    between atoms: _369  and  _370
REMARK  153  A    between atoms: _369  and  _372
REMARK  154  A    between atoms: _375  and  _377
REMARK  155  A    between atoms: _377  and  _378
REMARK  156  A    between atoms: _377  and  _380
REMARK  157  A    between atoms: _380  and  _381
REMARK  158  A    between atoms: _381  and  _382
REMARK  159  A    between atoms: _382  and  _383
REMARK  160  A    between atoms: _383  and  _384
REMARK  161  A    between atoms: _388  and  _390
REMARK  162  A    between atoms: _390  and  _391
REMARK  163  A    between atoms: _390  and  _393
REMARK  164  A    between atoms: _393  and  _394
REMARK  165  A    between atoms: _394  and  _395
REMARK  166  A    between atoms: _397  and  _399
REMARK  167  A    between atoms: _399  and  _400
REMARK  168  A    between atoms: _399  and  _402
REMARK  169  A    between atoms: _402  and  _403
REMARK  170  A    between atoms: _406  and  _408
REMARK  171  A    between atoms: _408  and  _409
REMARK  172  A    between atoms: _411  and  _413
REMARK  173  A    between atoms: _413  and  _414
REMARK  174  A    between atoms: _416  and  _418
REMARK  175  A    between atoms: _418  and  _419
REMARK  176  A    between atoms: _418  and  _421
REMARK  177  A    between atoms: _421  and  _422
REMARK  178  A    between atoms: _425  and  _427
REMARK  179  A    between atoms: _427  and  _428
REMARK  180  A    between atoms: _430  and  _432
REMARK  181  A    between atoms: _432  and  _433
REMARK  182  A    between atoms: _435  and  _437
REMARK  183  A    between atoms: _437  and  _438
REMARK  184  A    between atoms: _437  and  _440
REMARK  185  A    between atoms: _440  and  _441
REMARK  186  A    between atoms: _447  and  _449
REMARK  187  A    between atoms: _449  and  _450
REMARK  188  A    between atoms: _449  and  _452
REMARK  189  A    between atoms: _452  and  _453
REMARK  190  A    between atoms: _456  and  _458
REMARK  191  A    between atoms: _458  and  _459
REMARK  192  A    between atoms: _458  and  _461
REMARK  193  A    between atoms: _464  and  _466
REMARK  194  A    between atoms: _466  and  _467
REMARK  195  A    between atoms: _466  and  _469
REMARK  196  A    between atoms: _469  and  _470
REMARK  197  A    between atoms: _473  and  _475
REMARK  198  A    between atoms: _475  and  _476
REMARK  199  A    between atoms: _475  and  _478
REMARK  200  A    between atoms: _478  and  _479
REMARK  201  A    between atoms: _483  and  _484
REMARK  202  A    between atoms: _489  and  _491
REMARK  203  A    between atoms: _491  and  _492
REMARK  204  A    between atoms: _491  and  _494
REMARK  205  A    between atoms: _497  and  _499
REMARK  206  A    between atoms: _499  and  _500
REMARK  207  A    between atoms: _499  and  _502
REMARK  208  A    between atoms: _502  and  _503
REMARK  209  A    between atoms: _508  and  _510
REMARK  210  A    between atoms: _510  and  _511
REMARK  211  A    between atoms: _510  and  _513
REMARK  212  A    between atoms: _513  and  _514
REMARK  213  A    between atoms: _517  and  _519
REMARK  214  A    between atoms: _519  and  _520
REMARK  215  A    between atoms: _519  and  _522
REMARK  216  A    between atoms: _522  and  _523
REMARK  217  A    between atoms: _526  and  _528
REMARK  218  A    between atoms: _528  and  _529
REMARK  219  A    between atoms: _531  and  _533
REMARK  220  A    between atoms: _533  and  _534
REMARK  221  A    between atoms: _533  and  _536
REMARK  222  A    between atoms: _536  and  _537
REMARK  223  A    between atoms: _537  and  _538
REMARK  224  A    between atoms: _538  and  _539
REMARK                            x       y       z     vdW  Elec       q    Type
REMARK                         _______ _______ _______ _____ _____    ______ ____
ROOT
ATOM      1  CG  LYS A   1      -5.625   3.117   3.874  0.00  0.00    -0.000 C 
ENDROOT
BRANCH   1   2
ATOM      2  CB  LYS A   1      -6.864   2.357   3.461  0.00  0.00    +0.025 C 
BRANCH   2   3
ATOM      3  CA  LYS A   1      -6.706   1.446   2.243  0.00  0.00    +0.133 C 
BRANCH   3   4
ATOM      4  N   LYS A   1      -7.937   0.732   2.043  0.00  0.00    -0.239 NA
ATOM      5  H   LYS A   1      -8.042  -0.222   2.444  0.00  0.00    +0.142 HD
ENDBRANCH   3   4
BRANCH   3   6
ATOM      6  C   LYS A   1      -5.622   0.404   2.487  0.00  0.00    +0.224 C 
ATOM      7  O   LYS A   1      -5.915  -0.746   2.776  0.00  0.00    -0.287 OA
ENDBRANCH   3   6
ENDBRANCH   2   3
ENDBRANCH   1   2
BRANCH   1   8
ATOM      8  CD  LYS A   1      -5.928   3.989   5.092  0.00  0.00    -0.024 C 
BRANCH   8   9
ATOM      9  CE  LYS A   1      -4.656   4.519   5.725  0.00  0.00    -0.086 C 
BRANCH   9  10
ATOM     10  NZ  LYS A   1      -3.887   5.308   4.732  0.00  0.00    +0.380 N 
ATOM     11  HZ1 LYS A   1      -3.017   5.667   5.175  0.00  0.00    -0.089 HD
ATOM     12  HZ2 LYS A   1      -4.465   6.107   4.403  0.00  0.00    -0.089 HD
ATOM     13  HZ3 LYS A   1      -3.641   4.701   3.924  0.00  0.00    -0.089 HD
ENDBRANCH   9  10
ENDBRANCH   8   9
ENDBRANCH   1   8
TORSDOF 7
REMARK  Name = ../refined-set-2016/1hih/1hih_pocket.pdb
REMARK  224 active torsions:
REMARK  status: ('A' for Active; 'I' for Inactive)
REMARK    1  A    between atoms: _1  and  _3
REMARK    2  A    between atoms: _3  and  _4
REMARK    3  A    between atoms: _3  and  _6
REMARK    4  A    between atoms: _6  and  _7
REMARK    5  A    between atoms: _7  and  _8
REMARK    6  A    between atoms: _8  and  _9
REMARK    7  A    between atoms: _18  and  _20
REMARK    8  A    between atoms: _20  and  _21
REMARK    9  A    between atoms: _20  and  _23
REMARK   10  A    between atoms: _23  and  _24
REMARK   11  A    between atoms: _27  and  _29
REMARK   12  A    between atoms: _29  and  _30
REMARK   13  A    between atoms: _29  and  _32
REMARK   14  A    between atoms: _32  and  _33
REMARK   15  A    between atoms: _36  and  _38
REMARK   16  A    between atoms: _38  and  _39
REMARK   17  A    between atoms: _38  and  _41
REMARK   18  A    between atoms: _41  and  _42
REMARK   19  A    between atoms: _45  and  _47
REMARK   20  A    between atoms: _47  and  _48
REMARK   21  A    between atoms: _47  and  _50
REMARK   22  A    between atoms: _50  and  _51
REMARK   23  A    between atoms: _54  and  _56
REMARK   24  A    between atoms: _56  and  _57
REMARK   25  A    between atoms: _59  and  _61
REMARK   26  A    between atoms: _61  and  _62
REMARK   27  A    between atoms: _65  and  _67
REMARK   28  A    between atoms: _67  and  _68
REMARK   29  A    between atoms: _67  and  _70
REMARK   30  A    between atoms: _70  and  _71
REMARK   31  A    between atoms: _74  and  _76
REMARK   32  A    between atoms: _76  and  _77
REMARK   33  A    between atoms: _76  and  _79
REMARK   34  A    between atoms: _79  and  _80
REMARK   35  A    between atoms: _83  and  _85
REMARK   36  A    between atoms: _85  and  _86
REMARK   37  A    between atoms: _85  and  _88
REMARK   38  A    between atoms: _88  and  _89
REMARK   39  A    between atoms: _92  and  _94
REMARK   40  A    between atoms: _94  and  _95
REMARK   41  A    between atoms: _94  and  _97
REMARK   42  A    between atoms: _100  and  _102
REMARK   43  A    between atoms: _102  and  _103
REMARK   44  A    between atoms: _102  and  _105
REMARK   45  A    between atoms: _105  and  _106
REMARK   46  A    between atoms: _106  and  _107
REMARK   47  A    between atoms: _107  and  _108
REMARK   48  A    between atoms: _108  and  _109
REMARK   49  A    between atoms: _113  and  _115
REMARK   50  A    between atoms: _115  and  _116
REMARK   51  A    between atoms: _115  and  _118
REMARK   52  A    between atoms: _118  and  _119
REMARK   53  A    between atoms: _122  and  _124
REMARK   54  A    between atoms: _124  and  _125
REMARK   55  A    between atoms: _127  and  _129
REMARK   56  A    between atoms: _129  and  _130
REMARK   57  A    between atoms: _132  and  _134
REMARK   58  A    between atoms: _134  and  _135
REMARK   59  A    between atoms: _134  and  _137
REMARK   60  A    between atoms: _137  and  _138
REMARK   61  A    between atoms: _141  and  _143
REMARK   62  A    between atoms: _143  and  _144
REMARK   63  A    between atoms: _146  and  _148
REMARK   64  A    between atoms: _148  and  _149
REMARK   65  A    between atoms: _151  and  _153
REMARK   66  A    between atoms: _153  and  _154
REMARK   67  A    between atoms: _153  and  _156
REMARK   68  A    between atoms: _156  and  _157
REMARK   69  A    between atoms: _163  and  _165
REMARK   70  A    between atoms: _165  and  _166
REMARK   71  A    between atoms: _165  and  _168
REMARK   72  A    between atoms: _168  and  _169
REMARK   73  A    between atoms: _172  and  _174
REMARK   74  A    between atoms: _174  and  _175
REMARK   75  A    between atoms: _174  and  _177
REMARK   76  A    between atoms: _177  and  _178
REMARK   77  A    between atoms: _181  and  _183
REMARK   78  A    between atoms: _183  and  _184
REMARK   79  A    between atoms: _183  and  _186
REMARK   80  A    between atoms: _186  and  _187
REMARK   81  A    between atoms: _191  and  _192
REMARK   82  A    between atoms: _197  and  _199
REMARK   83  A    between atoms: _199  and  _200
REMARK   84  A    between atoms: _199  and  _202
REMARK   85  A    between atoms: _205  and  _207
REMARK   86  A    between atoms: _207  and  _208
REMARK   87  A    between atoms: _207  and  _210
REMARK   88  A    between atoms: _210  and  _211
REMARK   89  A    between atoms: _216  and  _218
REMARK   90  A    between atoms: _218  and  _219
REMARK   91  A    between atoms: _218  and  _221
REMARK   92  A    between atoms: _221  and  _222
REMARK   93  A    between atoms: _225  and  _227
REMARK   94  A    between atoms: _227  and  _228
REMARK   95  A    between atoms: _227  and  _230
REMARK   96  A    between atoms: _230  and  _231
REMARK   97  A    between atoms: _234  and  _236
REMARK   98  A    between atoms: _236  and  _237
REMARK   99  A    between atoms: _239  and  _241
REMARK  100  A    between atoms: _241  and  _242
REMARK  101  A    between atoms: _241  and  _244
REMARK  102  A    between atoms: _244  and  _245
REMARK  103  A    between atoms: _245  and  _246
REMARK  104  A    between atoms: _246  and  _247
REMARK  105  A    between atoms: _256  and  _258
REMARK  106  A    between atoms: _258  and  _259
REMARK  107  A    between atoms: _258  and  _261
REMARK  108  A    between atoms: _261  and  _262
REMARK  109  A    between atoms: _267  and  _269
REMARK  110  A    between atoms: _269  and  _270
REMARK  111  A    between atoms: _269  and  _272
REMARK  112  A    between atoms: _272  and  _273
REMARK  113  A    between atoms: _273  and  _274
REMARK  114  A    between atoms: _274  and  _275
REMARK  115  A    between atoms: _284  and  _286
REMARK  116  A    between atoms: _286  and  _287
REMARK  117  A    between atoms: _286  and  _289
REMARK  118  A    between atoms: _289  and  _290
REMARK  119  A    between atoms: _293  and  _295
REMARK  120  A    between atoms: _295  and  _296
REMARK  121  A    between atoms: _295  and  _298
REMARK  122  A    between atoms: _298  and  _299
REMARK  123  A    between atoms: _302  and  _304
REMARK  124  A    between atoms: _304  and  _305
REMARK  125  A    between atoms: _304  and  _307
REMARK  126  A    between atoms: _307  and  _308
REMARK  127  A    between atoms: _311  and  _313
REMARK  128  A    between atoms: _313  and  _314
REMARK  129  A    between atoms: _313  and  _316
REMARK  130  A    between atoms: _316  and  _317
REMARK  131  A    between atoms: _320  and  _322
REMARK  132  A    between atoms: _322  and  _323
REMARK  133  A    between atoms: _322  and  _325
REMARK  134  A    between atoms: _325  and  _326
REMARK  135  A    between atoms: _329  and  _331
REMARK  136  A    between atoms: _331  and  _332
REMARK  137  A    between atoms: _334  and  _336
REMARK  138  A    between atoms: _336  and  _337
REMARK  139  A    between atoms: _340  and  _342
REMARK  140  A    between atoms: _342  and  _343
REMARK  141  A    between atoms: _342  and  _345
REMARK  142  A    between atoms: _345  and  _346
REMARK  143  A    between atoms: _349  and  _351
REMARK  144  A    between atoms: _351  and  _352
REMARK  145  A    between atoms: _351  and  _354
REMARK  146  A    between atoms: _354  and  _355
REMARK  147  A    between atoms: _358  and  _360
REMARK  148  A    between atoms: _360  and  _361
REMARK  149  A    between atoms: _360  and  _363
REMARK  150  A    between atoms: _363  and  _364
REMARK  151  A    between atoms: _367  and  _369
REMARK  152  A    between atoms: _369  and  _370
REMARK  153  A    between atoms: _369  and  _372
REMARK  154  A    between atoms: _375  and  _377
REMARK  155  A    between atoms: _377  and  _378
REMARK  156  A    between atoms: _377  and  _380
REMARK  157  A    between atoms: _380  and  _381
REMARK  158  A    between atoms: _381  and  _382
REMARK  159  A    between atoms: _382  and  _383
REMARK  160  A    between atoms: _383  and  _384
REMARK  161  A    between atoms: _388  and  _390
REMARK  162  A    between atoms: _390  and  _391
REMARK  163  A    between atoms: _390  and  _393
REMARK  164  A    between atoms: _393  and  _394
REMARK  165  A    between atoms: _394  and  _395
REMARK  166  A    between atoms: _397  and  _399
REMARK  167  A    between atoms: _399  and  _400
REMARK  168  A    between atoms: _399  and  _402
REMARK  169  A    between atoms: _402  and  _403
REMARK  170  A    between atoms: _406  and  _408
REMARK  171  A    between atoms: _408  and  _409
REMARK  172  A    between atoms: _411  and  _413
REMARK  173  A    between atoms: _413  and  _414
REMARK  174  A    between atoms: _416  and  _418
REMARK  175  A    between atoms: _418  and  _419
REMARK  176  A    between atoms: _418  and  _421
REMARK  177  A    between atoms: _421  and  _422
REMARK  178  A    between atoms: _425  and  _427
REMARK  179  A    between atoms: _427  and  _428
REMARK  180  A    between atoms: _430  and  _432
REMARK  181  A    between atoms: _432  and  _433
REMARK  182  A    between atoms: _435  and  _437
REMARK  183  A    between atoms: _437  and  _438
REMARK  184  A    between atoms: _437  and  _440
REMARK  185  A    between atoms: _440  and  _441
REMARK  186  A    between atoms: _447  and  _449
REMARK  187  A    between atoms: _449  and  _450
REMARK  188  A    between atoms: _449  and  _452
REMARK  189  A    between atoms: _452  and  _453
REMARK  190  A    between atoms: _456  and  _458
REMARK  191  A    between atoms: _458  and  _459
REMARK  192  A    between atoms: _458  and  _461
REMARK  193  A    between atoms: _464  and  _466
REMARK  194  A    between atoms: _466  and  _467
REMARK  195  A    between atoms: _466  and  _469
REMARK  196  A    between atoms: _469  and  _470
REMARK  197  A    between atoms: _473  and  _475
REMARK  198  A    between atoms: _475  and  _476
REMARK  199  A    between atoms: _475  and  _478
REMARK  200  A    between atoms: _478  and  _479
REMARK  201  A    between atoms: _483  and  _484
REMARK  202  A    between atoms: _489  and  _491
REMARK  203  A    between atoms: _491  and  _492
REMARK  204  A    between atoms: _491  and  _494
REMARK  205  A    between atoms: _497  and  _499
REMARK  206  A    between atoms: _499  and  _500
REMARK  207  A    between atoms: _499  and  _502
REMARK  208  A    between atoms: _502  and  _503
REMARK  209  A    between atoms: _508  and  _510
REMARK  210  A    between atoms: _510  and  _511
REMARK  211  A    between atoms: _510  and  _513
REMARK  212  A    between atoms: _513  and  _514
REMARK  213  A    between atoms: _517  and  _519
REMARK  214  A    between atoms: _519  and  _520
REMARK  215  A    between atoms: _519  and  _522
REMARK  216  A    between atoms: _522  and  _523
REMARK  217  A    between atoms: _526  and  _528
REMARK  218  A    between atoms: _528  and  _529
REMARK  219  A    between atoms: _531  and  _533
REMARK  220  A    between atoms: _533  and  _534
REMARK  221  A    between atoms: _533  and  _536
REMARK  222  A    between atoms: _536  and  _537
REMARK  223  A    between atoms: _537  and  _538
REMARK  224  A    between atoms: _538  and  _539
REMARK                            x       y       z     vdW  Elec       q    Type
REMARK                         _______ _______ _______ _____ _____    ______ ____
ROOT
ATOM      1  C   ILE A   4       7.116  -5.399   8.664  0.00  0.00    +0.241 C 
ATOM      2  O   ILE A   4       6.007  -5.826   9.049  0.00  0.00    -0.273 OA
ATOM      3  N   GLY A   5       7.785  -5.948   7.662  0.00  0.00    -0.295 N 
ATOM      4  H   GLY A   5       8.682  -5.524   7.350  0.00  0.00    +0.150 HD
ENDROOT
BRANCH   3   5
ATOM      5  CA  GLY A   5       7.284  -7.132   6.994  0.00  0.00    +0.176 C 
BRANCH   5   6
ATOM      6  C   GLY A   5       6.407  -6.861   5.786  0.00  0.00    +0.243 C 
ATOM      7  N   GLY A   6       5.860  -5.657   5.644  0.00  0.00    -0.295 N 
ATOM      8  H   GLY A   6       6.016  -4.919   6.360  0.00  0.00    +0.150 HD
ATOM      9  O   GLY A   5       6.171  -7.773   5.009  0.00  0.00    -0.273 OA
BRANCH   7  10
ATOM     10  CA  GLY A   6       5.042  -5.386   4.476  0.00  0.00    +0.176 C 
BRANCH  10  11
ATOM     11  C   GLY A   6       3.819  -4.509   4.659  0.00  0.00    +0.243 C 
ATOM     12  O   GLY A   6       3.676  -3.857   5.691  0.00  0.00    -0.273 OA
ATOM     13  N   PHE A   7       2.942  -4.533   3.651  0.00  0.00    -0.297 N 
ATOM     14  H   PHE A   7       3.166  -5.139   2.836  0.00  0.00    +0.150 HD
BRANCH  13  15
ATOM     15  CA  PHE A   7       1.684  -3.770   3.603  0.00  0.00    +0.153 C 
BRANCH  15  16
ATOM     16  C   PHE A   7       0.499  -4.678   3.797  0.00  0.00    +0.241 C 
ATOM     17  N   ILE A   8      -0.560  -4.165   4.422  0.00  0.00    -0.298 N 
ATOM     18  H   ILE A   8      -0.515  -3.194   4.792  0.00  0.00    +0.150 HD
ATOM     19  O   PHE A   7       0.558  -5.845   3.414  0.00  0.00    -0.273 OA
BRANCH  17  20
ATOM     20  CA  ILE A   8      -1.783  -4.945   4.596  0.00  0.00    +0.137 C 
BRANCH  20  21
ATOM     21  C   ILE A   8      -2.991  -4.134   4.098  0.00  0.00    +0.227 C 
ATOM     22  O   ILE A   8      -2.975  -2.903   4.110  0.00  0.00    -0.286 OA
ENDBRANCH  20  21
BRANCH  20  23
ATOM     23  CB  ILE A   8      -2.038  -5.427   6.070  0.00  0.00    +0.026 C 
ATOM     24  CG2 ILE A   8      -1.009  -6.446   6.480  0.00  0.00    +0.002 C 
BRANCH  23  25
ATOM     25  CG1 ILE A   8      -2.062  -4.262   7.053  0.00  0.00    +0.002 C 
ATOM     26  CD1 ILE A   8      -2.765  -4.606   8.384  0.00  0.00    +0.000 C 
ENDBRANCH  23  25
ENDBRANCH  20  23
ENDBRANCH  17  20
ENDBRANCH  15  16
BRANCH  15  27
ATOM     27  CB  PHE A   7       1.493  -3.090   2.225  0.00  0.00    +0.055 C 
BRANCH  27  28
ATOM     28  CG  PHE A   7       2.388  -1.900   2.012  0.00  0.00    -0.020 A 
ATOM     29  CD2 PHE A   7       1.955  -0.627   2.352  0.00  0.00    -0.004 A 
ATOM     30  CE2 PHE A   7       2.812   0.467   2.247  0.00  0.00    -0.000 A 
ATOM     31  CZ  PHE A   7       4.119   0.288   1.791  0.00  0.00    -0.000 A 
ATOM     32  CE1 PHE A   7       4.564  -0.973   1.441  0.00  0.00    -0.000 A 
ATOM     33  CD1 PHE A   7       3.704  -2.065   1.549  0.00  0.00    -0.004 A 
ENDBRANCH  27  28
ENDBRANCH  15  27
ENDBRANCH  13  15
ENDBRANCH  10  11
ENDBRANCH   7  10
ENDBRANCH   5   6
ENDBRANCH   3   5
BRANCH   1  34
ATOM     34  CA  ILE A   4       7.762  -4.159   9.301  0.00  0.00    +0.149 C 
BRANCH  34  36
ATOM     35  C   GLY A   3       6.159  -2.547   8.406  0.00  0.00    +0.243 C 
ATOM     36  N   ILE A   4       6.724  -3.142   9.453  0.00  0.00    -0.297 N 
ATOM     37  H   ILE A   4       6.417  -2.875  10.410  0.00  0.00    +0.150 HD
ATOM     38  O   GLY A   3       6.494  -2.776   7.245  0.00  0.00    -0.273 OA
BRANCH  35  39
ATOM     39  CA  GLY A   3       5.069  -1.535   8.672  0.00  0.00    +0.176 C 
BRANCH  39  42
ATOM     40  C   GLY A   2       3.384  -0.555   7.237  0.00  0.00    +0.243 C 
ATOM     41  O   GLY A   2       3.145   0.375   8.011  0.00  0.00    -0.273 OA
ATOM     42  N   GLY A   3       4.283  -1.502   7.462  0.00  0.00    -0.295 N 
ATOM     43  H   GLY A   3       4.426  -2.243   6.746  0.00  0.00    +0.150 HD
BRANCH  40  44
ATOM     44  CA  GLY A   2       2.649  -0.662   5.931  0.00  0.00    +0.176 C 
BRANCH  44  46
ATOM     45  C   ILE A   1       0.318  -0.355   5.552  0.00  0.00    +0.238 C 
ATOM     46  N   GLY A   2       1.492   0.196   5.821  0.00  0.00    -0.296 N 
ATOM     47  H   GLY A   2       1.579   1.224   5.950  0.00  0.00    +0.150 HD
ATOM     48  O   ILE A   1       0.182  -1.584   5.379  0.00  0.00    -0.274 OA
BRANCH  45  49
ATOM     49  CA  ILE A   1      -0.883   0.591   5.431  0.00  0.00    +0.145 C 
BRANCH  49  50
ATOM     50  N   ILE A   1      -1.810  -0.040   4.489  0.00  0.00    -0.238 NA
ATOM     51  H   ILE A   1      -2.036  -1.050   4.595  0.00  0.00    +0.142 HD
ENDBRANCH  49  50
BRANCH  49  52
ATOM     52  CB  ILE A   1      -1.532   0.883   6.847  0.00  0.00    +0.025 C 
ATOM     53  CG2 ILE A   1      -2.503   2.081   6.774  0.00  0.00    +0.002 C 
BRANCH  52  54
ATOM     54  CG1 ILE A   1      -2.238  -0.360   7.406  0.00  0.00    +0.002 C 
ATOM     55  CD1 ILE A   1      -1.460  -1.058   8.472  0.00  0.00    +0.000 C 
ENDBRANCH  52  54
ENDBRANCH  49  52
ENDBRANCH  45  49
ENDBRANCH  44  46
ENDBRANCH  40  44
ENDBRANCH  39  42
ENDBRANCH  35  39
ENDBRANCH  34  36
BRANCH  34  56
ATOM     56  CB  ILE A   4       8.386  -4.560  10.701  0.00  0.00    +0.027 C 
ATOM     57  CG2 ILE A   4       9.315  -5.735  10.555  0.00  0.00    +0.002 C 
BRANCH  56  58
ATOM     58  CG1 ILE A   4       9.170  -3.391  11.311  0.00  0.00    +0.002 C 
ATOM     59  CD1 ILE A   4      10.421  -3.003  10.527  0.00  0.00    +0.000 C 
ENDBRANCH  56  58
ENDBRANCH  34  56
ENDBRANCH   1  34
TORSDOF 24
REMARK  Name = ../refined-set-2016/1hih/1hih_pocket.pdb
REMARK  224 active torsions:
REMARK  status: ('A' for Active; 'I' for Inactive)
REMARK    1  A    between atoms: _1  and  _3
REMARK    2  A    between atoms: _3  and  _4
REMARK    3  A    between atoms: _3  and  _6
REMARK    4  A    between atoms: _6  and  _7
REMARK    5  A    between atoms: _7  and  _8
REMARK    6  A    between atoms: _8  and  _9
REMARK    7  A    between atoms: _18  and  _20
REMARK    8  A    between atoms: _20  and  _21
REMARK    9  A    between atoms: _20  and  _23
REMARK   10  A    between atoms: _23  and  _24
REMARK   11  A    between atoms: _27  and  _29
REMARK   12  A    between atoms: _29  and  _30
REMARK   13  A    between atoms: _29  and  _32
REMARK   14  A    between atoms: _32  and  _33
REMARK   15  A    between atoms: _36  and  _38
REMARK   16  A    between atoms: _38  and  _39
REMARK   17  A    between atoms: _38  and  _41
REMARK   18  A    between atoms: _41  and  _42
REMARK   19  A    between atoms: _45  and  _47
REMARK   20  A    between atoms: _47  and  _48
REMARK   21  A    between atoms: _47  and  _50
REMARK   22  A    between atoms: _50  and  _51
REMARK   23  A    between atoms: _54  and  _56
REMARK   24  A    between atoms: _56  and  _57
REMARK   25  A    between atoms: _59  and  _61
REMARK   26  A    between atoms: _61  and  _62
REMARK   27  A    between atoms: _65  and  _67
REMARK   28  A    between atoms: _67  and  _68
REMARK   29  A    between atoms: _67  and  _70
REMARK   30  A    between atoms: _70  and  _71
REMARK   31  A    between atoms: _74  and  _76
REMARK   32  A    between atoms: _76  and  _77
REMARK   33  A    between atoms: _76  and  _79
REMARK   34  A    between atoms: _79  and  _80
REMARK   35  A    between atoms: _83  and  _85
REMARK   36  A    between atoms: _85  and  _86
REMARK   37  A    between atoms: _85  and  _88
REMARK   38  A    between atoms: _88  and  _89
REMARK   39  A    between atoms: _92  and  _94
REMARK   40  A    between atoms: _94  and  _95
REMARK   41  A    between atoms: _94  and  _97
REMARK   42  A    between atoms: _100  and  _102
REMARK   43  A    between atoms: _102  and  _103
REMARK   44  A    between atoms: _102  and  _105
REMARK   45  A    between atoms: _105  and  _106
REMARK   46  A    between atoms: _106  and  _107
REMARK   47  A    between atoms: _107  and  _108
REMARK   48  A    between atoms: _108  and  _109
REMARK   49  A    between atoms: _113  and  _115
REMARK   50  A    between atoms: _115  and  _116
REMARK   51  A    between atoms: _115  and  _118
REMARK   52  A    between atoms: _118  and  _119
REMARK   53  A    between atoms: _122  and  _124
REMARK   54  A    between atoms: _124  and  _125
REMARK   55  A    between atoms: _127  and  _129
REMARK   56  A    between atoms: _129  and  _130
REMARK   57  A    between atoms: _132  and  _134
REMARK   58  A    between atoms: _134  and  _135
REMARK   59  A    between atoms: _134  and  _137
REMARK   60  A    between atoms: _137  and  _138
REMARK   61  A    between atoms: _141  and  _143
REMARK   62  A    between atoms: _143  and  _144
REMARK   63  A    between atoms: _146  and  _148
REMARK   64  A    between atoms: _148  and  _149
REMARK   65  A    between atoms: _151  and  _153
REMARK   66  A    between atoms: _153  and  _154
REMARK   67  A    between atoms: _153  and  _156
REMARK   68  A    between atoms: _156  and  _157
REMARK   69  A    between atoms: _163  and  _165
REMARK   70  A    between atoms: _165  and  _166
REMARK   71  A    between atoms: _165  and  _168
REMARK   72  A    between atoms: _168  and  _169
REMARK   73  A    between atoms: _172  and  _174
REMARK   74  A    between atoms: _174  and  _175
REMARK   75  A    between atoms: _174  and  _177
REMARK   76  A    between atoms: _177  and  _178
REMARK   77  A    between atoms: _181  and  _183
REMARK   78  A    between atoms: _183  and  _184
REMARK   79  A    between atoms: _183  and  _186
REMARK   80  A    between atoms: _186  and  _187
REMARK   81  A    between atoms: _191  and  _192
REMARK   82  A    between atoms: _197  and  _199
REMARK   83  A    between atoms: _199  and  _200
REMARK   84  A    between atoms: _199  and  _202
REMARK   85  A    between atoms: _205  and  _207
REMARK   86  A    between atoms: _207  and  _208
REMARK   87  A    between atoms: _207  and  _210
REMARK   88  A    between atoms: _210  and  _211
REMARK   89  A    between atoms: _216  and  _218
REMARK   90  A    between atoms: _218  and  _219
REMARK   91  A    between atoms: _218  and  _221
REMARK   92  A    between atoms: _221  and  _222
REMARK   93  A    between atoms: _225  and  _227
REMARK   94  A    between atoms: _227  and  _228
REMARK   95  A    between atoms: _227  and  _230
REMARK   96  A    between atoms: _230  and  _231
REMARK   97  A    between atoms: _234  and  _236
REMARK   98  A    between atoms: _236  and  _237
REMARK   99  A    between atoms: _239  and  _241
REMARK  100  A    between atoms: _241  and  _242
REMARK  101  A    between atoms: _241  and  _244
REMARK  102  A    between atoms: _244  and  _245
REMARK  103  A    between atoms: _245  and  _246
REMARK  104  A    between atoms: _246  and  _247
REMARK  105  A    between atoms: _256  and  _258
REMARK  106  A    between atoms: _258  and  _259
REMARK  107  A    between atoms: _258  and  _261
REMARK  108  A    between atoms: _261  and  _262
REMARK  109  A    between atoms: _267  and  _269
REMARK  110  A    between atoms: _269  and  _270
REMARK  111  A    between atoms: _269  and  _272
REMARK  112  A    between atoms: _272  and  _273
REMARK  113  A    between atoms: _273  and  _274
REMARK  114  A    between atoms: _274  and  _275
REMARK  115  A    between atoms: _284  and  _286
REMARK  116  A    between atoms: _286  and  _287
REMARK  117  A    between atoms: _286  and  _289
REMARK  118  A    between atoms: _289  and  _290
REMARK  119  A    between atoms: _293  and  _295
REMARK  120  A    between atoms: _295  and  _296
REMARK  121  A    between atoms: _295  and  _298
REMARK  122  A    between atoms: _298  and  _299
REMARK  123  A    between atoms: _302  and  _304
REMARK  124  A    between atoms: _304  and  _305
REMARK  125  A    between atoms: _304  and  _307
REMARK  126  A    between atoms: _307  and  _308
REMARK  127  A    between atoms: _311  and  _313
REMARK  128  A    between atoms: _313  and  _314
REMARK  129  A    between atoms: _313  and  _316
REMARK  130  A    between atoms: _316  and  _317
REMARK  131  A    between atoms: _320  and  _322
REMARK  132  A    between atoms: _322  and  _323
REMARK  133  A    between atoms: _322  and  _325
REMARK  134  A    between atoms: _325  and  _326
REMARK  135  A    between atoms: _329  and  _331
REMARK  136  A    between atoms: _331  and  _332
REMARK  137  A    between atoms: _334  and  _336
REMARK  138  A    between atoms: _336  and  _337
REMARK  139  A    between atoms: _340  and  _342
REMARK  140  A    between atoms: _342  and  _343
REMARK  141  A    between atoms: _342  and  _345
REMARK  142  A    between atoms: _345  and  _346
REMARK  143  A    between atoms: _349  and  _351
REMARK  144  A    between atoms: _351  and  _352
REMARK  145  A    between atoms: _351  and  _354
REMARK  146  A    between atoms: _354  and  _355
REMARK  147  A    between atoms: _358  and  _360
REMARK  148  A    between atoms: _360  and  _361
REMARK  149  A    between atoms: _360  and  _363
REMARK  150  A    between atoms: _363  and  _364
REMARK  151  A    between atoms: _367  and  _369
REMARK  152  A    between atoms: _369  and  _370
REMARK  153  A    between atoms: _369  and  _372
REMARK  154  A    between atoms: _375  and  _377
REMARK  155  A    between atoms: _377  and  _378
REMARK  156  A    between atoms: _377  and  _380
REMARK  157  A    between atoms: _380  and  _381
REMARK  158  A    between atoms: _381  and  _382
REMARK  159  A    between atoms: _382  and  _383
REMARK  160  A    between atoms: _383  and  _384
REMARK  161  A    between atoms: _388  and  _390
REMARK  162  A    between atoms: _390  and  _391
REMARK  163  A    between atoms: _390  and  _393
REMARK  164  A    between atoms: _393  and  _394
REMARK  165  A    between atoms: _394  and  _395
REMARK  166  A    between atoms: _397  and  _399
REMARK  167  A    between atoms: _399  and  _400
REMARK  168  A    between atoms: _399  and  _402
REMARK  169  A    between atoms: _402  and  _403
REMARK  170  A    between atoms: _406  and  _408
REMARK  171  A    between atoms: _408  and  _409
REMARK  172  A    between atoms: _411  and  _413
REMARK  173  A    between atoms: _413  and  _414
REMARK  174  A    between atoms: _416  and  _418
REMARK  175  A    between atoms: _418  and  _419
REMARK  176  A    between atoms: _418  and  _421
REMARK  177  A    between atoms: _421  and  _422
REMARK  178  A    between atoms: _425  and  _427
REMARK  179  A    between atoms: _427  and  _428
REMARK  180  A    between atoms: _430  and  _432
REMARK  181  A    between atoms: _432  and  _433
REMARK  182  A    between atoms: _435  and  _437
REMARK  183  A    between atoms: _437  and  _438
REMARK  184  A    between atoms: _437  and  _440
REMARK  185  A    between atoms: _440  and  _441
REMARK  186  A    between atoms: _447  and  _449
REMARK  187  A    between atoms: _449  and  _450
REMARK  188  A    between atoms: _449  and  _452
REMARK  189  A    between atoms: _452  and  _453
REMARK  190  A    between atoms: _456  and  _458
REMARK  191  A    between atoms: _458  and  _459
REMARK  192  A    between atoms: _458  and  _461
REMARK  193  A    between atoms: _464  and  _466
REMARK  194  A    between atoms: _466  and  _467
REMARK  195  A    between atoms: _466  and  _469
REMARK  196  A    between atoms: _469  and  _470
REMARK  197  A    between atoms: _473  and  _475
REMARK  198  A    between atoms: _475  and  _476
REMARK  199  A    between atoms: _475  and  _478
REMARK  200  A    between atoms: _478  and  _479
REMARK  201  A    between atoms: _483  and  _484
REMARK  202  A    between atoms: _489  and  _491
REMARK  203  A    between atoms: _491  and  _492
REMARK  204  A    between atoms: _491  and  _494
REMARK  205  A    between atoms: _497  and  _499
REMARK  206  A    between atoms: _499  and  _500
REMARK  207  A    between atoms: _499  and  _502
REMARK  208  A    between atoms: _502  and  _503
REMARK  209  A    between atoms: _508  and  _510
REMARK  210  A    between atoms: _510  and  _511
REMARK  211  A    between atoms: _510  and  _513
REMARK  212  A    between atoms: _513  and  _514
REMARK  213  A    between atoms: _517  and  _519
REMARK  214  A    between atoms: _519  and  _520
REMARK  215  A    between atoms: _519  and  _522
REMARK  216  A    between atoms: _522  and  _523
REMARK  217  A    between atoms: _526  and  _528
REMARK  218  A    between atoms: _528  and  _529
REMARK  219  A    between atoms: _531  and  _533
REMARK  220  A    between atoms: _533  and  _534
REMARK  221  A    between atoms: _533  and  _536
REMARK  222  A    between atoms: _536  and  _537
REMARK  223  A    between atoms: _537  and  _538
REMARK  224  A    between atoms: _538  and  _539
REMARK                            x       y       z     vdW  Elec       q    Type
REMARK                         _______ _______ _______ _____ _____    ______ ____
ROOT
ATOM      1  CA  LEU A   1      -8.544   1.058  10.348  0.00  0.00    +0.133 C 
ENDROOT
BRANCH   1   2
ATOM      2  N   LEU A   1      -8.742   1.967  11.469  0.00  0.00    -0.239 NA
ATOM      3  H   LEU A   1      -8.002   2.068  12.193  0.00  0.00    +0.142 HD
ENDBRANCH   1   2
BRANCH   1   4
ATOM      4  C   LEU A   1      -8.802  -0.355  10.906  0.00  0.00    +0.224 C 
ATOM      5  O   LEU A   1      -8.476  -0.632  12.050  0.00  0.00    -0.287 OA
ENDBRANCH   1   4
BRANCH   1   6
ATOM      6  CB  LEU A   1      -7.119   1.171   9.811  0.00  0.00    +0.025 C 
BRANCH   6   7
ATOM      7  CG  LEU A   1      -6.689   2.614   9.605  0.00  0.00    +0.002 C 
ATOM      8  CD2 LEU A   1      -5.215   2.663   9.310  0.00  0.00    +0.000 C 
ATOM      9  CD1 LEU A   1      -7.524   3.189   8.457  0.00  0.00    +0.000 C 
ENDBRANCH   6   7
ENDBRANCH   1   6
TORSDOF 4
REMARK  Name = ../refined-set-2016/1hih/1hih_pocket.pdb
REMARK  224 active torsions:
REMARK  status: ('A' for Active; 'I' for Inactive)
REMARK    1  A    between atoms: _1  and  _3
REMARK    2  A    between atoms: _3  and  _4
REMARK    3  A    between atoms: _3  and  _6
REMARK    4  A    between atoms: _6  and  _7
REMARK    5  A    between atoms: _7  and  _8
REMARK    6  A    between atoms: _8  and  _9
REMARK    7  A    between atoms: _18  and  _20
REMARK    8  A    between atoms: _20  and  _21
REMARK    9  A    between atoms: _20  and  _23
REMARK   10  A    between atoms: _23  and  _24
REMARK   11  A    between atoms: _27  and  _29
REMARK   12  A    between atoms: _29  and  _30
REMARK   13  A    between atoms: _29  and  _32
REMARK   14  A    between atoms: _32  and  _33
REMARK   15  A    between atoms: _36  and  _38
REMARK   16  A    between atoms: _38  and  _39
REMARK   17  A    between atoms: _38  and  _41
REMARK   18  A    between atoms: _41  and  _42
REMARK   19  A    between atoms: _45  and  _47
REMARK   20  A    between atoms: _47  and  _48
REMARK   21  A    between atoms: _47  and  _50
REMARK   22  A    between atoms: _50  and  _51
REMARK   23  A    between atoms: _54  and  _56
REMARK   24  A    between atoms: _56  and  _57
REMARK   25  A    between atoms: _59  and  _61
REMARK   26  A    between atoms: _61  and  _62
REMARK   27  A    between atoms: _65  and  _67
REMARK   28  A    between atoms: _67  and  _68
REMARK   29  A    between atoms: _67  and  _70
REMARK   30  A    between atoms: _70  and  _71
REMARK   31  A    between atoms: _74  and  _76
REMARK   32  A    between atoms: _76  and  _77
REMARK   33  A    between atoms: _76  and  _79
REMARK   34  A    between atoms: _79  and  _80
REMARK   35  A    between atoms: _83  and  _85
REMARK   36  A    between atoms: _85  and  _86
REMARK   37  A    between atoms: _85  and  _88
REMARK   38  A    between atoms: _88  and  _89
REMARK   39  A    between atoms: _92  and  _94
REMARK   40  A    between atoms: _94  and  _95
REMARK   41  A    between atoms: _94  and  _97
REMARK   42  A    between atoms: _100  and  _102
REMARK   43  A    between atoms: _102  and  _103
REMARK   44  A    between atoms: _102  and  _105
REMARK   45  A    between atoms: _105  and  _106
REMARK   46  A    between atoms: _106  and  _107
REMARK   47  A    between atoms: _107  and  _108
REMARK   48  A    between atoms: _108  and  _109
REMARK   49  A    between atoms: _113  and  _115
REMARK   50  A    between atoms: _115  and  _116
REMARK   51  A    between atoms: _115  and  _118
REMARK   52  A    between atoms: _118  and  _119
REMARK   53  A    between atoms: _122  and  _124
REMARK   54  A    between atoms: _124  and  _125
REMARK   55  A    between atoms: _127  and  _129
REMARK   56  A    between atoms: _129  and  _130
REMARK   57  A    between atoms: _132  and  _134
REMARK   58  A    between atoms: _134  and  _135
REMARK   59  A    between atoms: _134  and  _137
REMARK   60  A    between atoms: _137  and  _138
REMARK   61  A    between atoms: _141  and  _143
REMARK   62  A    between atoms: _143  and  _144
REMARK   63  A    between atoms: _146  and  _148
REMARK   64  A    between atoms: _148  and  _149
REMARK   65  A    between atoms: _151  and  _153
REMARK   66  A    between atoms: _153  and  _154
REMARK   67  A    between atoms: _153  and  _156
REMARK   68  A    between atoms: _156  and  _157
REMARK   69  A    between atoms: _163  and  _165
REMARK   70  A    between atoms: _165  and  _166
REMARK   71  A    between atoms: _165  and  _168
REMARK   72  A    between atoms: _168  and  _169
REMARK   73  A    between atoms: _172  and  _174
REMARK   74  A    between atoms: _174  and  _175
REMARK   75  A    between atoms: _174  and  _177
REMARK   76  A    between atoms: _177  and  _178
REMARK   77  A    between atoms: _181  and  _183
REMARK   78  A    between atoms: _183  and  _184
REMARK   79  A    between atoms: _183  and  _186
REMARK   80  A    between atoms: _186  and  _187
REMARK   81  A    between atoms: _191  and  _192
REMARK   82  A    between atoms: _197  and  _199
REMARK   83  A    between atoms: _199  and  _200
REMARK   84  A    between atoms: _199  and  _202
REMARK   85  A    between atoms: _205  and  _207
REMARK   86  A    between atoms: _207  and  _208
REMARK   87  A    between atoms: _207  and  _210
REMARK   88  A    between atoms: _210  and  _211
REMARK   89  A    between atoms: _216  and  _218
REMARK   90  A    between atoms: _218  and  _219
REMARK   91  A    between atoms: _218  and  _221
REMARK   92  A    between atoms: _221  and  _222
REMARK   93  A    between atoms: _225  and  _227
REMARK   94  A    between atoms: _227  and  _228
REMARK   95  A    between atoms: _227  and  _230
REMARK   96  A    between atoms: _230  and  _231
REMARK   97  A    between atoms: _234  and  _236
REMARK   98  A    between atoms: _236  and  _237
REMARK   99  A    between atoms: _239  and  _241
REMARK  100  A    between atoms: _241  and  _242
REMARK  101  A    between atoms: _241  and  _244
REMARK  102  A    between atoms: _244  and  _245
REMARK  103  A    between atoms: _245  and  _246
REMARK  104  A    between atoms: _246  and  _247
REMARK  105  A    between atoms: _256  and  _258
REMARK  106  A    between atoms: _258  and  _259
REMARK  107  A    between atoms: _258  and  _261
REMARK  108  A    between atoms: _261  and  _262
REMARK  109  A    between atoms: _267  and  _269
REMARK  110  A    between atoms: _269  and  _270
REMARK  111  A    between atoms: _269  and  _272
REMARK  112  A    between atoms: _272  and  _273
REMARK  113  A    between atoms: _273  and  _274
REMARK  114  A    between atoms: _274  and  _275
REMARK  115  A    between atoms: _284  and  _286
REMARK  116  A    between atoms: _286  and  _287
REMARK  117  A    between atoms: _286  and  _289
REMARK  118  A    between atoms: _289  and  _290
REMARK  119  A    between atoms: _293  and  _295
REMARK  120  A    between atoms: _295  and  _296
REMARK  121  A    between atoms: _295  and  _298
REMARK  122  A    between atoms: _298  and  _299
REMARK  123  A    between atoms: _302  and  _304
REMARK  124  A    between atoms: _304  and  _305
REMARK  125  A    between atoms: _304  and  _307
REMARK  126  A    between atoms: _307  and  _308
REMARK  127  A    between atoms: _311  and  _313
REMARK  128  A    between atoms: _313  and  _314
REMARK  129  A    between atoms: _313  and  _316
REMARK  130  A    between atoms: _316  and  _317
REMARK  131  A    between atoms: _320  and  _322
REMARK  132  A    between atoms: _322  and  _323
REMARK  133  A    between atoms: _322  and  _325
REMARK  134  A    between atoms: _325  and  _326
REMARK  135  A    between atoms: _329  and  _331
REMARK  136  A    between atoms: _331  and  _332
REMARK  137  A    between atoms: _334  and  _336
REMARK  138  A    between atoms: _336  and  _337
REMARK  139  A    between atoms: _340  and  _342
REMARK  140  A    between atoms: _342  and  _343
REMARK  141  A    between atoms: _342  and  _345
REMARK  142  A    between atoms: _345  and  _346
REMARK  143  A    between atoms: _349  and  _351
REMARK  144  A    between atoms: _351  and  _352
REMARK  145  A    between atoms: _351  and  _354
REMARK  146  A    between atoms: _354  and  _355
REMARK  147  A    between atoms: _358  and  _360
REMARK  148  A    between atoms: _360  and  _361
REMARK  149  A    between atoms: _360  and  _363
REMARK  150  A    between atoms: _363  and  _364
REMARK  151  A    between atoms: _367  and  _369
REMARK  152  A    between atoms: _369  and  _370
REMARK  153  A    between atoms: _369  and  _372
REMARK  154  A    between atoms: _375  and  _377
REMARK  155  A    between atoms: _377  and  _378
REMARK  156  A    between atoms: _377  and  _380
REMARK  157  A    between atoms: _380  and  _381
REMARK  158  A    between atoms: _381  and  _382
REMARK  159  A    between atoms: _382  and  _383
REMARK  160  A    between atoms: _383  and  _384
REMARK  161  A    between atoms: _388  and  _390
REMARK  162  A    between atoms: _390  and  _391
REMARK  163  A    between atoms: _390  and  _393
REMARK  164  A    between atoms: _393  and  _394
REMARK  165  A    between atoms: _394  and  _395
REMARK  166  A    between atoms: _397  and  _399
REMARK  167  A    between atoms: _399  and  _400
REMARK  168  A    between atoms: _399  and  _402
REMARK  169  A    between atoms: _402  and  _403
REMARK  170  A    between atoms: _406  and  _408
REMARK  171  A    between atoms: _408  and  _409
REMARK  172  A    between atoms: _411  and  _413
REMARK  173  A    between atoms: _413  and  _414
REMARK  174  A    between atoms: _416  and  _418
REMARK  175  A    between atoms: _418  and  _419
REMARK  176  A    between atoms: _418  and  _421
REMARK  177  A    between atoms: _421  and  _422
REMARK  178  A    between atoms: _425  and  _427
REMARK  179  A    between atoms: _427  and  _428
REMARK  180  A    between atoms: _430  and  _432
REMARK  181  A    between atoms: _432  and  _433
REMARK  182  A    between atoms: _435  and  _437
REMARK  183  A    between atoms: _437  and  _438
REMARK  184  A    between atoms: _437  and  _440
REMARK  185  A    between atoms: _440  and  _441
REMARK  186  A    between atoms: _447  and  _449
REMARK  187  A    between atoms: _449  and  _450
REMARK  188  A    between atoms: _449  and  _452
REMARK  189  A    between atoms: _452  and  _453
REMARK  190  A    between atoms: _456  and  _458
REMARK  191  A    between atoms: _458  and  _459
REMARK  192  A    between atoms: _458  and  _461
REMARK  193  A    between atoms: _464  and  _466
REMARK  194  A    between atoms: _466  and  _467
REMARK  195  A    between atoms: _466  and  _469
REMARK  196  A    between atoms: _469  and  _470
REMARK  197  A    between atoms: _473  and  _475
REMARK  198  A    between atoms: _475  and  _476
REMARK  199  A    between atoms: _475  and  _478
REMARK  200  A    between atoms: _478  and  _479
REMARK  201  A    between atoms: _483  and  _484
REMARK  202  A    between atoms: _489  and  _491
REMARK  203  A    between atoms: _491  and  _492
REMARK  204  A    between atoms: _491  and  _494
REMARK  205  A    between atoms: _497  and  _499
REMARK  206  A    between atoms: _499  and  _500
REMARK  207  A    between atoms: _499  and  _502
REMARK  208  A    between atoms: _502  and  _503
REMARK  209  A    between atoms: _508  and  _510
REMARK  210  A    between atoms: _510  and  _511
REMARK  211  A    between atoms: _510  and  _513
REMARK  212  A    between atoms: _513  and  _514
REMARK  213  A    between atoms: _517  and  _519
REMARK  214  A    between atoms: _519  and  _520
REMARK  215  A    between atoms: _519  and  _522
REMARK  216  A    between atoms: _522  and  _523
REMARK  217  A    between atoms: _526  and  _528
REMARK  218  A    between atoms: _528  and  _529
REMARK  219  A    between atoms: _531  and  _533
REMARK  220  A    between atoms: _533  and  _534
REMARK  221  A    between atoms: _533  and  _536
REMARK  222  A    between atoms: _536  and  _537
REMARK  223  A    between atoms: _537  and  _538
REMARK  224  A    between atoms: _538  and  _539
REMARK                            x       y       z     vdW  Elec       q    Type
REMARK                         _______ _______ _______ _____ _____    ______ ____
ROOT
ATOM      1  C   ILE A   5      -3.749   0.400  18.074  0.00  0.00    +0.241 C 
ATOM      2  N   ILE A   6      -3.378   1.172  19.092  0.00  0.00    -0.297 N 
ATOM      3  H   ILE A   6      -2.724   0.802  19.811  0.00  0.00    +0.150 HD
ATOM      4  O   ILE A   5      -4.622   0.739  17.274  0.00  0.00    -0.273 OA
ENDROOT
BRANCH   2   5
ATOM      5  CA  ILE A   6      -3.882   2.530  19.204  0.00  0.00    +0.149 C 
BRANCH   5   6
ATOM      6  C   ILE A   6      -2.668   3.375  18.775  0.00  0.00    +0.241 C 
ATOM      7  O   ILE A   6      -1.589   3.324  19.404  0.00  0.00    -0.273 OA
ATOM      8  N   GLY A   7      -2.795   4.054  17.639  0.00  0.00    -0.295 N 
ATOM      9  H   GLY A   7      -3.684   4.008  17.101  0.00  0.00    +0.150 HD
BRANCH   8  10
ATOM     10  CA  GLY A   7      -1.687   4.861  17.151  0.00  0.00    +0.176 C 
BRANCH  10  11
ATOM     11  C   GLY A   7      -1.781   6.304  17.593  0.00  0.00    +0.243 C 
ATOM     12  O   GLY A   7      -2.710   6.684  18.298  0.00  0.00    -0.273 OA
ATOM     13  N   ARG A   8      -0.849   7.117  17.117  0.00  0.00    -0.297 N 
ATOM     14  H   ARG A   8      -0.139   6.726  16.465  0.00  0.00    +0.150 HD
BRANCH  13  15
ATOM     15  CA  ARG A   8      -0.769   8.531  17.461  0.00  0.00    +0.149 C 
BRANCH  15  16
ATOM     16  C   ARG A   8      -2.007   9.357  17.179  0.00  0.00    +0.241 C 
ATOM     17  O   ARG A   8      -2.261  10.333  17.873  0.00  0.00    -0.273 OA
ATOM     18  N   ASN A   9      -2.794   8.981  16.179  0.00  0.00    -0.298 N 
ATOM     19  H   ASN A   9      -2.572   8.130  15.624  0.00  0.00    +0.150 HD
BRANCH  18  20
ATOM     20  CA  ASN A   9      -3.967   9.773  15.872  0.00  0.00    +0.146 C 
BRANCH  20  21
ATOM     21  C   ASN A   9      -4.933   9.844  17.052  0.00  0.00    +0.227 C 
ATOM     22  O   ASN A   9      -5.551  10.883  17.285  0.00  0.00    -0.286 OA
ENDBRANCH  20  21
BRANCH  20  23
ATOM     23  CB  ASN A   9      -4.652   9.295  14.577  0.00  0.00    +0.112 C 
BRANCH  23  24
ATOM     24  CG  ASN A   9      -5.287   7.912  14.709  0.00  0.00    +0.222 C 
ATOM     25  OD1 ASN A   9      -4.618   6.934  15.061  0.00  0.00    -0.275 OA
ATOM     26  ND2 ASN A   9      -6.576   7.819  14.385  0.00  0.00    -0.329 N 
ATOM     27 HD21 ASN A   9      -7.057   6.897  14.423  0.00  0.00    +0.145 HD
ATOM     28 HD22 ASN A   9      -7.102   8.668  14.094  0.00  0.00    +0.145 HD
ENDBRANCH  23  24
ENDBRANCH  20  23
ENDBRANCH  18  20
ENDBRANCH  15  16
BRANCH  15  29
ATOM     29  CB  ARG A   8       0.439   9.177  16.779  0.00  0.00    +0.033 C 
BRANCH  29  30
ATOM     30  CG  ARG A   8       1.738   8.629  17.296  0.00  0.00    +0.045 C 
BRANCH  30  31
ATOM     31  CD  ARG A   8       2.933   9.414  16.801  0.00  0.00    +0.174 C 
BRANCH  31  32
ATOM     32  NE  ARG A   8       3.089   9.286  15.354  0.00  0.00    -0.265 N 
ATOM     33  HE  ARG A   8       3.523   8.414  14.990  0.00  0.00    +0.259 HD
ATOM     34  CZ  ARG A   8       2.715  10.205  14.472  0.00  0.00    +0.342 C 
ATOM     35  NH2 ARG A   8       2.153  11.350  14.874  0.00  0.00    -0.292 N 
ATOM     36 HH21 ARG A   8       2.005  11.529  15.888  0.00  0.00    +0.255 HD
ATOM     37 HH22 ARG A   8       1.864  12.062  14.173  0.00  0.00    +0.255 HD
ATOM     38  NH1 ARG A   8       2.917   9.980  13.188  0.00  0.00    -0.292 N 
ATOM     39 HH11 ARG A   8       3.363   9.093  12.879  0.00  0.00    +0.255 HD
ATOM     40 HH12 ARG A   8       2.630  10.690  12.484  0.00  0.00    +0.255 HD
ENDBRANCH  31  32
ENDBRANCH  30  31
ENDBRANCH  29  30
ENDBRANCH  15  29
ENDBRANCH  13  15
ENDBRANCH  10  11
ENDBRANCH   8  10
ENDBRANCH   5   6
BRANCH   5  41
ATOM     41  CB  ILE A   6      -4.314   2.895  20.628  0.00  0.00    +0.027 C 
ATOM     42  CG2 ILE A   6      -4.832   4.315  20.643  0.00  0.00    +0.002 C 
BRANCH  41  43
ATOM     43  CG1 ILE A   6      -5.378   1.917  21.166  0.00  0.00    +0.002 C 
ATOM     44  CD1 ILE A   6      -6.694   1.912  20.401  0.00  0.00    +0.000 C 
ENDBRANCH  41  43
ENDBRANCH   5  41
ENDBRANCH   2   5
BRANCH   1  45
ATOM     45  CA  ILE A   5      -3.109  -0.984  17.982  0.00  0.00    +0.149 C 
BRANCH  45  48
ATOM     46  C   ASN A   4      -4.158  -3.090  18.655  0.00  0.00    +0.241 C 
ATOM     47  O   ASN A   4      -3.499  -3.153  19.691  0.00  0.00    -0.273 OA
ATOM     48  N   ILE A   5      -4.069  -2.078  17.806  0.00  0.00    -0.297 N 
ATOM     49  H   ILE A   5      -4.704  -2.058  16.983  0.00  0.00    +0.150 HD
BRANCH  46  50
ATOM     50  CA  ASN A   4      -5.135  -4.199  18.290  0.00  0.00    +0.158 C 
BRANCH  50  52
ATOM     51  C   VAL A   3      -3.432  -5.787  17.487  0.00  0.00    +0.241 C 
ATOM     52  N   ASN A   4      -4.376  -5.468  18.386  0.00  0.00    -0.297 N 
ATOM     53  H   ASN A   4      -4.579  -6.125  19.166  0.00  0.00    +0.150 HD
ATOM     54  O   VAL A   3      -3.223  -5.104  16.490  0.00  0.00    -0.273 OA
BRANCH  51  55
ATOM     55  CA  VAL A   3      -2.641  -7.099  17.671  0.00  0.00    +0.149 C 
BRANCH  55  58
ATOM     56  C   PRO A   2      -2.104  -8.913  16.087  0.00  0.00    +0.241 C 
ATOM     57  O   PRO A   2      -2.475  -9.770  16.875  0.00  0.00    -0.273 OA
ATOM     58  N   VAL A   3      -2.176  -7.610  16.362  0.00  0.00    -0.297 N 
ATOM     59  H   VAL A   3      -1.895  -6.927  15.629  0.00  0.00    +0.150 HD
BRANCH  56  63
ATOM     60  C   THR A   1      -3.034  -8.008  13.344  0.00  0.00    +0.244 C 
ATOM     61  O   THR A   1      -3.962  -8.613  13.841  0.00  0.00    -0.273 OA
ATOM     62  N   PRO A   2      -1.768  -8.281  13.671  0.00  0.00    -0.272 N 
ATOM     63  CA  PRO A   2      -1.609  -9.327  14.696  0.00  0.00    +0.152 C 
ATOM     64  CB  PRO A   2      -0.107  -9.649  14.655  0.00  0.00    +0.031 C 
ATOM     65  CG  PRO A   2       0.519  -8.449  14.006  0.00  0.00    +0.024 C 
ATOM     66  CD  PRO A   2      -0.486  -7.981  12.993  0.00  0.00    +0.094 C 
BRANCH  60  67
ATOM     67  CA  THR A   1      -3.286  -6.938  12.305  0.00  0.00    +0.172 C 
BRANCH  67  68
ATOM     68  CB  THR A   1      -3.549  -5.590  13.051  0.00  0.00    +0.135 C 
ATOM     69  CG2 THR A   1      -4.907  -5.607  13.800  0.00  0.00    +0.034 C 
BRANCH  68  70
ATOM     70  OG1 THR A   1      -2.472  -5.357  13.984  0.00  0.00    -0.383 OA
ATOM     71  HG1 THR A   1      -2.630  -4.504  14.462  0.00  0.00    +0.210 HD
ENDBRANCH  68  70
ENDBRANCH  67  68
BRANCH  67  72
ATOM     72  N   THR A   1      -4.417  -7.333  11.477  0.00  0.00    -0.236 NA
ATOM     73  H   THR A   1      -5.381  -7.062  11.756  0.00  0.00    +0.142 HD
ENDBRANCH  67  72
ENDBRANCH  60  67
ENDBRANCH  56  63
ENDBRANCH  55  58
BRANCH  55  74
ATOM     74  CB  VAL A   3      -1.423  -6.880  18.675  0.00  0.00    +0.027 C 
ATOM     75  CG2 VAL A   3      -1.887  -6.279  19.981  0.00  0.00    +0.002 C 
ATOM     76  CG1 VAL A   3      -0.384  -5.968  18.086  0.00  0.00    +0.002 C 
ENDBRANCH  55  74
ENDBRANCH  51  55
ENDBRANCH  50  52
BRANCH  50  77
ATOM     77  CB  ASN A   4      -6.351  -4.175  19.229  0.00  0.00    +0.114 C 
BRANCH  77  78
ATOM     78  CG  ASN A   4      -7.400  -5.216  18.841  0.00  0.00    +0.222 C 
ATOM     79  ND2 ASN A   4      -7.888  -5.959  19.807  0.00  0.00    -0.329 N 
ATOM     80 HD21 ASN A   4      -7.595  -5.791  20.791  0.00  0.00    +0.145 HD
ATOM     81 HD22 ASN A   4      -8.567  -6.716  19.589  0.00  0.00    +0.145 HD
ATOM     82  OD1 ASN A   4      -7.715  -5.377  17.671  0.00  0.00    -0.275 OA
ENDBRANCH  77  78
ENDBRANCH  50  77
ENDBRANCH  46  50
ENDBRANCH  45  48
BRANCH  45  83
ATOM     83  CB  ILE A   5      -2.134  -0.998  16.760  0.00  0.00    +0.027 C 
ATOM     84  CG2 ILE A   5      -1.372   0.349  16.619  0.00  0.00    +0.002 C 
BRANCH  83  85
ATOM     85  CG1 ILE A   5      -1.204  -2.225  16.852  0.00  0.00    +0.002 C 
ATOM     86  CD1 ILE A   5      -0.589  -2.614  15.528  0.00  0.00    +0.000 C 
ENDBRANCH  83  85
ENDBRANCH  45  83
ENDBRANCH   1  45
TORSDOF 32
REMARK  Name = ../refined-set-2016/1hih/1hih_pocket.pdb
REMARK  224 active torsions:
REMARK  status: ('A' for Active; 'I' for Inactive)
REMARK    1  A    between atoms: _1  and  _3
REMARK    2  A    between atoms: _3  and  _4
REMARK    3  A    between atoms: _3  and  _6
REMARK    4  A    between atoms: _6  and  _7
REMARK    5  A    between atoms: _7  and  _8
REMARK    6  A    between atoms: _8  and  _9
REMARK    7  A    between atoms: _18  and  _20
REMARK    8  A    between atoms: _20  and  _21
REMARK    9  A    between atoms: _20  and  _23
REMARK   10  A    between atoms: _23  and  _24
REMARK   11  A    between atoms: _27  and  _29
REMARK   12  A    between atoms: _29  and  _30
REMARK   13  A    between atoms: _29  and  _32
REMARK   14  A    between atoms: _32  and  _33
REMARK   15  A    between atoms: _36  and  _38
REMARK   16  A    between atoms: _38  and  _39
REMARK   17  A    between atoms: _38  and  _41
REMARK   18  A    between atoms: _41  and  _42
REMARK   19  A    between atoms: _45  and  _47
REMARK   20  A    between atoms: _47  and  _48
REMARK   21  A    between atoms: _47  and  _50
REMARK   22  A    between atoms: _50  and  _51
REMARK   23  A    between atoms: _54  and  _56
REMARK   24  A    between atoms: _56  and  _57
REMARK   25  A    between atoms: _59  and  _61
REMARK   26  A    between atoms: _61  and  _62
REMARK   27  A    between atoms: _65  and  _67
REMARK   28  A    between atoms: _67  and  _68
REMARK   29  A    between atoms: _67  and  _70
REMARK   30  A    between atoms: _70  and  _71
REMARK   31  A    between atoms: _74  and  _76
REMARK   32  A    between atoms: _76  and  _77
REMARK   33  A    between atoms: _76  and  _79
REMARK   34  A    between atoms: _79  and  _80
REMARK   35  A    between atoms: _83  and  _85
REMARK   36  A    between atoms: _85  and  _86
REMARK   37  A    between atoms: _85  and  _88
REMARK   38  A    between atoms: _88  and  _89
REMARK   39  A    between atoms: _92  and  _94
REMARK   40  A    between atoms: _94  and  _95
REMARK   41  A    between atoms: _94  and  _97
REMARK   42  A    between atoms: _100  and  _102
REMARK   43  A    between atoms: _102  and  _103
REMARK   44  A    between atoms: _102  and  _105
REMARK   45  A    between atoms: _105  and  _106
REMARK   46  A    between atoms: _106  and  _107
REMARK   47  A    between atoms: _107  and  _108
REMARK   48  A    between atoms: _108  and  _109
REMARK   49  A    between atoms: _113  and  _115
REMARK   50  A    between atoms: _115  and  _116
REMARK   51  A    between atoms: _115  and  _118
REMARK   52  A    between atoms: _118  and  _119
REMARK   53  A    between atoms: _122  and  _124
REMARK   54  A    between atoms: _124  and  _125
REMARK   55  A    between atoms: _127  and  _129
REMARK   56  A    between atoms: _129  and  _130
REMARK   57  A    between atoms: _132  and  _134
REMARK   58  A    between atoms: _134  and  _135
REMARK   59  A    between atoms: _134  and  _137
REMARK   60  A    between atoms: _137  and  _138
REMARK   61  A    between atoms: _141  and  _143
REMARK   62  A    between atoms: _143  and  _144
REMARK   63  A    between atoms: _146  and  _148
REMARK   64  A    between atoms: _148  and  _149
REMARK   65  A    between atoms: _151  and  _153
REMARK   66  A    between atoms: _153  and  _154
REMARK   67  A    between atoms: _153  and  _156
REMARK   68  A    between atoms: _156  and  _157
REMARK   69  A    between atoms: _163  and  _165
REMARK   70  A    between atoms: _165  and  _166
REMARK   71  A    between atoms: _165  and  _168
REMARK   72  A    between atoms: _168  and  _169
REMARK   73  A    between atoms: _172  and  _174
REMARK   74  A    between atoms: _174  and  _175
REMARK   75  A    between atoms: _174  and  _177
REMARK   76  A    between atoms: _177  and  _178
REMARK   77  A    between atoms: _181  and  _183
REMARK   78  A    between atoms: _183  and  _184
REMARK   79  A    between atoms: _183  and  _186
REMARK   80  A    between atoms: _186  and  _187
REMARK   81  A    between atoms: _191  and  _192
REMARK   82  A    between atoms: _197  and  _199
REMARK   83  A    between atoms: _199  and  _200
REMARK   84  A    between atoms: _199  and  _202
REMARK   85  A    between atoms: _205  and  _207
REMARK   86  A    between atoms: _207  and  _208
REMARK   87  A    between atoms: _207  and  _210
REMARK   88  A    between atoms: _210  and  _211
REMARK   89  A    between atoms: _216  and  _218
REMARK   90  A    between atoms: _218  and  _219
REMARK   91  A    between atoms: _218  and  _221
REMARK   92  A    between atoms: _221  and  _222
REMARK   93  A    between atoms: _225  and  _227
REMARK   94  A    between atoms: _227  and  _228
REMARK   95  A    between atoms: _227  and  _230
REMARK   96  A    between atoms: _230  and  _231
REMARK   97  A    between atoms: _234  and  _236
REMARK   98  A    between atoms: _236  and  _237
REMARK   99  A    between atoms: _239  and  _241
REMARK  100  A    between atoms: _241  and  _242
REMARK  101  A    between atoms: _241  and  _244
REMARK  102  A    between atoms: _244  and  _245
REMARK  103  A    between atoms: _245  and  _246
REMARK  104  A    between atoms: _246  and  _247
REMARK  105  A    between atoms: _256  and  _258
REMARK  106  A    between atoms: _258  and  _259
REMARK  107  A    between atoms: _258  and  _261
REMARK  108  A    between atoms: _261  and  _262
REMARK  109  A    between atoms: _267  and  _269
REMARK  110  A    between atoms: _269  and  _270
REMARK  111  A    between atoms: _269  and  _272
REMARK  112  A    between atoms: _272  and  _273
REMARK  113  A    between atoms: _273  and  _274
REMARK  114  A    between atoms: _274  and  _275
REMARK  115  A    between atoms: _284  and  _286
REMARK  116  A    between atoms: _286  and  _287
REMARK  117  A    between atoms: _286  and  _289
REMARK  118  A    between atoms: _289  and  _290
REMARK  119  A    between atoms: _293  and  _295
REMARK  120  A    between atoms: _295  and  _296
REMARK  121  A    between atoms: _295  and  _298
REMARK  122  A    between atoms: _298  and  _299
REMARK  123  A    between atoms: _302  and  _304
REMARK  124  A    between atoms: _304  and  _305
REMARK  125  A    between atoms: _304  and  _307
REMARK  126  A    between atoms: _307  and  _308
REMARK  127  A    between atoms: _311  and  _313
REMARK  128  A    between atoms: _313  and  _314
REMARK  129  A    between atoms: _313  and  _316
REMARK  130  A    between atoms: _316  and  _317
REMARK  131  A    between atoms: _320  and  _322
REMARK  132  A    between atoms: _322  and  _323
REMARK  133  A    between atoms: _322  and  _325
REMARK  134  A    between atoms: _325  and  _326
REMARK  135  A    between atoms: _329  and  _331
REMARK  136  A    between atoms: _331  and  _332
REMARK  137  A    between atoms: _334  and  _336
REMARK  138  A    between atoms: _336  and  _337
REMARK  139  A    between atoms: _340  and  _342
REMARK  140  A    between atoms: _342  and  _343
REMARK  141  A    between atoms: _342  and  _345
REMARK  142  A    between atoms: _345  and  _346
REMARK  143  A    between atoms: _349  and  _351
REMARK  144  A    between atoms: _351  and  _352
REMARK  145  A    between atoms: _351  and  _354
REMARK  146  A    between atoms: _354  and  _355
REMARK  147  A    between atoms: _358  and  _360
REMARK  148  A    between atoms: _360  and  _361
REMARK  149  A    between atoms: _360  and  _363
REMARK  150  A    between atoms: _363  and  _364
REMARK  151  A    between atoms: _367  and  _369
REMARK  152  A    between atoms: _369  and  _370
REMARK  153  A    between atoms: _369  and  _372
REMARK  154  A    between atoms: _375  and  _377
REMARK  155  A    between atoms: _377  and  _378
REMARK  156  A    between atoms: _377  and  _380
REMARK  157  A    between atoms: _380  and  _381
REMARK  158  A    between atoms: _381  and  _382
REMARK  159  A    between atoms: _382  and  _383
REMARK  160  A    between atoms: _383  and  _384
REMARK  161  A    between atoms: _388  and  _390
REMARK  162  A    between atoms: _390  and  _391
REMARK  163  A    between atoms: _390  and  _393
REMARK  164  A    between atoms: _393  and  _394
REMARK  165  A    between atoms: _394  and  _395
REMARK  166  A    between atoms: _397  and  _399
REMARK  167  A    between atoms: _399  and  _400
REMARK  168  A    between atoms: _399  and  _402
REMARK  169  A    between atoms: _402  and  _403
REMARK  170  A    between atoms: _406  and  _408
REMARK  171  A    between atoms: _408  and  _409
REMARK  172  A    between atoms: _411  and  _413
REMARK  173  A    between atoms: _413  and  _414
REMARK  174  A    between atoms: _416  and  _418
REMARK  175  A    between atoms: _418  and  _419
REMARK  176  A    between atoms: _418  and  _421
REMARK  177  A    between atoms: _421  and  _422
REMARK  178  A    between atoms: _425  and  _427
REMARK  179  A    between atoms: _427  and  _428
REMARK  180  A    between atoms: _430  and  _432
REMARK  181  A    between atoms: _432  and  _433
REMARK  182  A    between atoms: _435  and  _437
REMARK  183  A    between atoms: _437  and  _438
REMARK  184  A    between atoms: _437  and  _440
REMARK  185  A    between atoms: _440  and  _441
REMARK  186  A    between atoms: _447  and  _449
REMARK  187  A    between atoms: _449  and  _450
REMARK  188  A    between atoms: _449  and  _452
REMARK  189  A    between atoms: _452  and  _453
REMARK  190  A    between atoms: _456  and  _458
REMARK  191  A    between atoms: _458  and  _459
REMARK  192  A    between atoms: _458  and  _461
REMARK  193  A    between atoms: _464  and  _466
REMARK  194  A    between atoms: _466  and  _467
REMARK  195  A    between atoms: _466  and  _469
REMARK  196  A    between atoms: _469  and  _470
REMARK  197  A    between atoms: _473  and  _475
REMARK  198  A    between atoms: _475  and  _476
REMARK  199  A    between atoms: _475  and  _478
REMARK  200  A    between atoms: _478  and  _479
REMARK  201  A    between atoms: _483  and  _484
REMARK  202  A    between atoms: _489  and  _491
REMARK  203  A    between atoms: _491  and  _492
REMARK  204  A    between atoms: _491  and  _494
REMARK  205  A    between atoms: _497  and  _499
REMARK  206  A    between atoms: _499  and  _500
REMARK  207  A    between atoms: _499  and  _502
REMARK  208  A    between atoms: _502  and  _503
REMARK  209  A    between atoms: _508  and  _510
REMARK  210  A    between atoms: _510  and  _511
REMARK  211  A    between atoms: _510  and  _513
REMARK  212  A    between atoms: _513  and  _514
REMARK  213  A    between atoms: _517  and  _519
REMARK  214  A    between atoms: _519  and  _520
REMARK  215  A    between atoms: _519  and  _522
REMARK  216  A    between atoms: _522  and  _523
REMARK  217  A    between atoms: _526  and  _528
REMARK  218  A    between atoms: _528  and  _529
REMARK  219  A    between atoms: _531  and  _533
REMARK  220  A    between atoms: _533  and  _534
REMARK  221  A    between atoms: _533  and  _536
REMARK  222  A    between atoms: _536  and  _537
REMARK  223  A    between atoms: _537  and  _538
REMARK  224  A    between atoms: _538  and  _539
REMARK                            x       y       z     vdW  Elec       q    Type
REMARK                         _______ _______ _______ _____ _____    ______ ____
ROOT
ATOM      1  NE  ARG A   1       6.242   8.000  11.035  0.00  0.00    -0.265 N 
ATOM      2  HE  ARG A   1       5.224   8.077  11.231  0.00  0.00    +0.259 HD
ATOM      3  CZ  ARG A   1       6.618   7.257   9.997  0.00  0.00    +0.342 C 
ATOM      4  NH2 ARG A   1       7.907   7.094   9.701  0.00  0.00    -0.292 N 
ATOM      5 HH21 ARG A   1       8.636   7.551  10.285  0.00  0.00    +0.255 HD
ATOM      6 HH22 ARG A   1       8.184   6.510   8.886  0.00  0.00    +0.255 HD
ATOM      7  NH1 ARG A   1       5.697   6.777   9.182  0.00  0.00    -0.292 N 
ATOM      8 HH11 ARG A   1       4.692   6.981   9.355  0.00  0.00    +0.255 HD
ATOM      9 HH12 ARG A   1       5.976   6.195   8.367  0.00  0.00    +0.255 HD
ENDROOT
BRANCH   1  10
ATOM     10  CD  ARG A   1       7.159   8.714  11.917  0.00  0.00    +0.174 C 
BRANCH  10  11
ATOM     11  CG  ARG A   1       6.377   9.551  12.952  0.00  0.00    +0.045 C 
BRANCH  11  12
ATOM     12  CB  ARG A   1       7.293  10.059  14.054  0.00  0.00    +0.029 C 
BRANCH  12  13
ATOM     13  CA  ARG A   1       6.585  10.725  15.233  0.00  0.00    +0.133 C 
BRANCH  13  14
ATOM     14  N   ARG A   1       5.918  11.946  14.803  0.00  0.00    -0.239 NA
ATOM     15  H   ARG A   1       5.944  12.215  13.799  0.00  0.00    +0.142 HD
ENDBRANCH  13  14
BRANCH  13  16
ATOM     16  C   ARG A   1       7.640  11.119  16.277  0.00  0.00    +0.224 C 
ATOM     17  O   ARG A   1       8.384  12.081  16.078  0.00  0.00    -0.287 OA
ENDBRANCH  13  16
ENDBRANCH  12  13
ENDBRANCH  11  12
ENDBRANCH  10  11
ENDBRANCH   1  10
TORSDOF 6
REMARK  Name = ../refined-set-2016/1hih/1hih_pocket.pdb
REMARK  224 active torsions:
REMARK  status: ('A' for Active; 'I' for Inactive)
REMARK    1  A    between atoms: _1  and  _3
REMARK    2  A    between atoms: _3  and  _4
REMARK    3  A    between atoms: _3  and  _6
REMARK    4  A    between atoms: _6  and  _7
REMARK    5  A    between atoms: _7  and  _8
REMARK    6  A    between atoms: _8  and  _9
REMARK    7  A    between atoms: _18  and  _20
REMARK    8  A    between atoms: _20  and  _21
REMARK    9  A    between atoms: _20  and  _23
REMARK   10  A    between atoms: _23  and  _24
REMARK   11  A    between atoms: _27  and  _29
REMARK   12  A    between atoms: _29  and  _30
REMARK   13  A    between atoms: _29  and  _32
REMARK   14  A    between atoms: _32  and  _33
REMARK   15  A    between atoms: _36  and  _38
REMARK   16  A    between atoms: _38  and  _39
REMARK   17  A    between atoms: _38  and  _41
REMARK   18  A    between atoms: _41  and  _42
REMARK   19  A    between atoms: _45  and  _47
REMARK   20  A    between atoms: _47  and  _48
REMARK   21  A    between atoms: _47  and  _50
REMARK   22  A    between atoms: _50  and  _51
REMARK   23  A    between atoms: _54  and  _56
REMARK   24  A    between atoms: _56  and  _57
REMARK   25  A    between atoms: _59  and  _61
REMARK   26  A    between atoms: _61  and  _62
REMARK   27  A    between atoms: _65  and  _67
REMARK   28  A    between atoms: _67  and  _68
REMARK   29  A    between atoms: _67  and  _70
REMARK   30  A    between atoms: _70  and  _71
REMARK   31  A    between atoms: _74  and  _76
REMARK   32  A    between atoms: _76  and  _77
REMARK   33  A    between atoms: _76  and  _79
REMARK   34  A    between atoms: _79  and  _80
REMARK   35  A    between atoms: _83  and  _85
REMARK   36  A    between atoms: _85  and  _86
REMARK   37  A    between atoms: _85  and  _88
REMARK   38  A    between atoms: _88  and  _89
REMARK   39  A    between atoms: _92  and  _94
REMARK   40  A    between atoms: _94  and  _95
REMARK   41  A    between atoms: _94  and  _97
REMARK   42  A    between atoms: _100  and  _102
REMARK   43  A    between atoms: _102  and  _103
REMARK   44  A    between atoms: _102  and  _105
REMARK   45  A    between atoms: _105  and  _106
REMARK   46  A    between atoms: _106  and  _107
REMARK   47  A    between atoms: _107  and  _108
REMARK   48  A    between atoms: _108  and  _109
REMARK   49  A    between atoms: _113  and  _115
REMARK   50  A    between atoms: _115  and  _116
REMARK   51  A    between atoms: _115  and  _118
REMARK   52  A    between atoms: _118  and  _119
REMARK   53  A    between atoms: _122  and  _124
REMARK   54  A    between atoms: _124  and  _125
REMARK   55  A    between atoms: _127  and  _129
REMARK   56  A    between atoms: _129  and  _130
REMARK   57  A    between atoms: _132  and  _134
REMARK   58  A    between atoms: _134  and  _135
REMARK   59  A    between atoms: _134  and  _137
REMARK   60  A    between atoms: _137  and  _138
REMARK   61  A    between atoms: _141  and  _143
REMARK   62  A    between atoms: _143  and  _144
REMARK   63  A    between atoms: _146  and  _148
REMARK   64  A    between atoms: _148  and  _149
REMARK   65  A    between atoms: _151  and  _153
REMARK   66  A    between atoms: _153  and  _154
REMARK   67  A    between atoms: _153  and  _156
REMARK   68  A    between atoms: _156  and  _157
REMARK   69  A    between atoms: _163  and  _165
REMARK   70  A    between atoms: _165  and  _166
REMARK   71  A    between atoms: _165  and  _168
REMARK   72  A    between atoms: _168  and  _169
REMARK   73  A    between atoms: _172  and  _174
REMARK   74  A    between atoms: _174  and  _175
REMARK   75  A    between atoms: _174  and  _177
REMARK   76  A    between atoms: _177  and  _178
REMARK   77  A    between atoms: _181  and  _183
REMARK   78  A    between atoms: _183  and  _184
REMARK   79  A    between atoms: _183  and  _186
REMARK   80  A    between atoms: _186  and  _187
REMARK   81  A    between atoms: _191  and  _192
REMARK   82  A    between atoms: _197  and  _199
REMARK   83  A    between atoms: _199  and  _200
REMARK   84  A    between atoms: _199  and  _202
REMARK   85  A    between atoms: _205  and  _207
REMARK   86  A    between atoms: _207  and  _208
REMARK   87  A    between atoms: _207  and  _210
REMARK   88  A    between atoms: _210  and  _211
REMARK   89  A    between atoms: _216  and  _218
REMARK   90  A    between atoms: _218  and  _219
REMARK   91  A    between atoms: _218  and  _221
REMARK   92  A    between atoms: _221  and  _222
REMARK   93  A    between atoms: _225  and  _227
REMARK   94  A    between atoms: _227  and  _228
REMARK   95  A    between atoms: _227  and  _230
REMARK   96  A    between atoms: _230  and  _231
REMARK   97  A    between atoms: _234  and  _236
REMARK   98  A    between atoms: _236  and  _237
REMARK   99  A    between atoms: _239  and  _241
REMARK  100  A    between atoms: _241  and  _242
REMARK  101  A    between atoms: _241  and  _244
REMARK  102  A    between atoms: _244  and  _245
REMARK  103  A    between atoms: _245  and  _246
REMARK  104  A    between atoms: _246  and  _247
REMARK  105  A    between atoms: _256  and  _258
REMARK  106  A    between atoms: _258  and  _259
REMARK  107  A    between atoms: _258  and  _261
REMARK  108  A    between atoms: _261  and  _262
REMARK  109  A    between atoms: _267  and  _269
REMARK  110  A    between atoms: _269  and  _270
REMARK  111  A    between atoms: _269  and  _272
REMARK  112  A    between atoms: _272  and  _273
REMARK  113  A    between atoms: _273  and  _274
REMARK  114  A    between atoms: _274  and  _275
REMARK  115  A    between atoms: _284  and  _286
REMARK  116  A    between atoms: _286  and  _287
REMARK  117  A    between atoms: _286  and  _289
REMARK  118  A    between atoms: _289  and  _290
REMARK  119  A    between atoms: _293  and  _295
REMARK  120  A    between atoms: _295  and  _296
REMARK  121  A    between atoms: _295  and  _298
REMARK  122  A    between atoms: _298  and  _299
REMARK  123  A    between atoms: _302  and  _304
REMARK  124  A    between atoms: _304  and  _305
REMARK  125  A    between atoms: _304  and  _307
REMARK  126  A    between atoms: _307  and  _308
REMARK  127  A    between atoms: _311  and  _313
REMARK  128  A    between atoms: _313  and  _314
REMARK  129  A    between atoms: _313  and  _316
REMARK  130  A    between atoms: _316  and  _317
REMARK  131  A    between atoms: _320  and  _322
REMARK  132  A    between atoms: _322  and  _323
REMARK  133  A    between atoms: _322  and  _325
REMARK  134  A    between atoms: _325  and  _326
REMARK  135  A    between atoms: _329  and  _331
REMARK  136  A    between atoms: _331  and  _332
REMARK  137  A    between atoms: _334  and  _336
REMARK  138  A    between atoms: _336  and  _337
REMARK  139  A    between atoms: _340  and  _342
REMARK  140  A    between atoms: _342  and  _343
REMARK  141  A    between atoms: _342  and  _345
REMARK  142  A    between atoms: _345  and  _346
REMARK  143  A    between atoms: _349  and  _351
REMARK  144  A    between atoms: _351  and  _352
REMARK  145  A    between atoms: _351  and  _354
REMARK  146  A    between atoms: _354  and  _355
REMARK  147  A    between atoms: _358  and  _360
REMARK  148  A    between atoms: _360  and  _361
REMARK  149  A    between atoms: _360  and  _363
REMARK  150  A    between atoms: _363  and  _364
REMARK  151  A    between atoms: _367  and  _369
REMARK  152  A    between atoms: _369  and  _370
REMARK  153  A    between atoms: _369  and  _372
REMARK  154  A    between atoms: _375  and  _377
REMARK  155  A    between atoms: _377  and  _378
REMARK  156  A    between atoms: _377  and  _380
REMARK  157  A    between atoms: _380  and  _381
REMARK  158  A    between atoms: _381  and  _382
REMARK  159  A    between atoms: _382  and  _383
REMARK  160  A    between atoms: _383  and  _384
REMARK  161  A    between atoms: _388  and  _390
REMARK  162  A    between atoms: _390  and  _391
REMARK  163  A    between atoms: _390  and  _393
REMARK  164  A    between atoms: _393  and  _394
REMARK  165  A    between atoms: _394  and  _395
REMARK  166  A    between atoms: _397  and  _399
REMARK  167  A    between atoms: _399  and  _400
REMARK  168  A    between atoms: _399  and  _402
REMARK  169  A    between atoms: _402  and  _403
REMARK  170  A    between atoms: _406  and  _408
REMARK  171  A    between atoms: _408  and  _409
REMARK  172  A    between atoms: _411  and  _413
REMARK  173  A    between atoms: _413  and  _414
REMARK  174  A    between atoms: _416  and  _418
REMARK  175  A    between atoms: _418  and  _419
REMARK  176  A    between atoms: _418  and  _421
REMARK  177  A    between atoms: _421  and  _422
REMARK  178  A    between atoms: _425  and  _427
REMARK  179  A    between atoms: _427  and  _428
REMARK  180  A    between atoms: _430  and  _432
REMARK  181  A    between atoms: _432  and  _433
REMARK  182  A    between atoms: _435  and  _437
REMARK  183  A    between atoms: _437  and  _438
REMARK  184  A    between atoms: _437  and  _440
REMARK  185  A    between atoms: _440  and  _441
REMARK  186  A    between atoms: _447  and  _449
REMARK  187  A    between atoms: _449  and  _450
REMARK  188  A    between atoms: _449  and  _452
REMARK  189  A    between atoms: _452  and  _453
REMARK  190  A    between atoms: _456  and  _458
REMARK  191  A    between atoms: _458  and  _459
REMARK  192  A    between atoms: _458  and  _461
REMARK  193  A    between atoms: _464  and  _466
REMARK  194  A    between atoms: _466  and  _467
REMARK  195  A    between atoms: _466  and  _469
REMARK  196  A    between atoms: _469  and  _470
REMARK  197  A    between atoms: _473  and  _475
REMARK  198  A    between atoms: _475  and  _476
REMARK  199  A    between atoms: _475  and  _478
REMARK  200  A    between atoms: _478  and  _479
REMARK  201  A    between atoms: _483  and  _484
REMARK  202  A    between atoms: _489  and  _491
REMARK  203  A    between atoms: _491  and  _492
REMARK  204  A    between atoms: _491  and  _494
REMARK  205  A    between atoms: _497  and  _499
REMARK  206  A    between atoms: _499  and  _500
REMARK  207  A    between atoms: _499  and  _502
REMARK  208  A    between atoms: _502  and  _503
REMARK  209  A    between atoms: _508  and  _510
REMARK  210  A    between atoms: _510  and  _511
REMARK  211  A    between atoms: _510  and  _513
REMARK  212  A    between atoms: _513  and  _514
REMARK  213  A    between atoms: _517  and  _519
REMARK  214  A    between atoms: _519  and  _520
REMARK  215  A    between atoms: _519  and  _522
REMARK  216  A    between atoms: _522  and  _523
REMARK  217  A    between atoms: _526  and  _528
REMARK  218  A    between atoms: _528  and  _529
REMARK  219  A    between atoms: _531  and  _533
REMARK  220  A    between atoms: _533  and  _534
REMARK  221  A    between atoms: _533  and  _536
REMARK  222  A    between atoms: _536  and  _537
REMARK  223  A    between atoms: _537  and  _538
REMARK  224  A    between atoms: _538  and  _539
REMARK                            x       y       z     vdW  Elec       q    Type
REMARK                         _______ _______ _______ _____ _____    ______ ____
ROOT
ATOM      1  CA  LEU A   1      12.132  10.826  16.795  0.00  0.00    +0.133 C 
ENDROOT
BRANCH   1   2
ATOM      2  N   LEU A   1      10.744  11.089  17.218  0.00  0.00    -0.239 NA
ATOM      3  H   LEU A   1      10.250  11.916  16.825  0.00  0.00    +0.142 HD
ENDBRANCH   1   2
BRANCH   1   4
ATOM      4  C   LEU A   1      13.099  11.611  17.667  0.00  0.00    +0.224 C 
ATOM      5  O   LEU A   1      12.956  12.829  17.811  0.00  0.00    -0.287 OA
ENDBRANCH   1   4
BRANCH   1   6
ATOM      6  CB  LEU A   1      12.345  11.264  15.345  0.00  0.00    +0.025 C 
BRANCH   6   7
ATOM      7  CG  LEU A   1      11.584  10.458  14.302  0.00  0.00    +0.002 C 
ATOM      8  CD2 LEU A   1      12.307   9.146  14.085  0.00  0.00    +0.000 C 
ATOM      9  CD1 LEU A   1      11.452  11.267  13.018  0.00  0.00    +0.000 C 
ENDBRANCH   6   7
ENDBRANCH   1   6
TORSDOF 4
REMARK  Name = ../refined-set-2016/1hih/1hih_pocket.pdb
REMARK  224 active torsions:
REMARK  status: ('A' for Active; 'I' for Inactive)
REMARK    1  A    between atoms: _1  and  _3
REMARK    2  A    between atoms: _3  and  _4
REMARK    3  A    between atoms: _3  and  _6
REMARK    4  A    between atoms: _6  and  _7
REMARK    5  A    between atoms: _7  and  _8
REMARK    6  A    between atoms: _8  and  _9
REMARK    7  A    between atoms: _18  and  _20
REMARK    8  A    between atoms: _20  and  _21
REMARK    9  A    between atoms: _20  and  _23
REMARK   10  A    between atoms: _23  and  _24
REMARK   11  A    between atoms: _27  and  _29
REMARK   12  A    between atoms: _29  and  _30
REMARK   13  A    between atoms: _29  and  _32
REMARK   14  A    between atoms: _32  and  _33
REMARK   15  A    between atoms: _36  and  _38
REMARK   16  A    between atoms: _38  and  _39
REMARK   17  A    between atoms: _38  and  _41
REMARK   18  A    between atoms: _41  and  _42
REMARK   19  A    between atoms: _45  and  _47
REMARK   20  A    between atoms: _47  and  _48
REMARK   21  A    between atoms: _47  and  _50
REMARK   22  A    between atoms: _50  and  _51
REMARK   23  A    between atoms: _54  and  _56
REMARK   24  A    between atoms: _56  and  _57
REMARK   25  A    between atoms: _59  and  _61
REMARK   26  A    between atoms: _61  and  _62
REMARK   27  A    between atoms: _65  and  _67
REMARK   28  A    between atoms: _67  and  _68
REMARK   29  A    between atoms: _67  and  _70
REMARK   30  A    between atoms: _70  and  _71
REMARK   31  A    between atoms: _74  and  _76
REMARK   32  A    between atoms: _76  and  _77
REMARK   33  A    between atoms: _76  and  _79
REMARK   34  A    between atoms: _79  and  _80
REMARK   35  A    between atoms: _83  and  _85
REMARK   36  A    between atoms: _85  and  _86
REMARK   37  A    between atoms: _85  and  _88
REMARK   38  A    between atoms: _88  and  _89
REMARK   39  A    between atoms: _92  and  _94
REMARK   40  A    between atoms: _94  and  _95
REMARK   41  A    between atoms: _94  and  _97
REMARK   42  A    between atoms: _100  and  _102
REMARK   43  A    between atoms: _102  and  _103
REMARK   44  A    between atoms: _102  and  _105
REMARK   45  A    between atoms: _105  and  _106
REMARK   46  A    between atoms: _106  and  _107
REMARK   47  A    between atoms: _107  and  _108
REMARK   48  A    between atoms: _108  and  _109
REMARK   49  A    between atoms: _113  and  _115
REMARK   50  A    between atoms: _115  and  _116
REMARK   51  A    between atoms: _115  and  _118
REMARK   52  A    between atoms: _118  and  _119
REMARK   53  A    between atoms: _122  and  _124
REMARK   54  A    between atoms: _124  and  _125
REMARK   55  A    between atoms: _127  and  _129
REMARK   56  A    between atoms: _129  and  _130
REMARK   57  A    between atoms: _132  and  _134
REMARK   58  A    between atoms: _134  and  _135
REMARK   59  A    between atoms: _134  and  _137
REMARK   60  A    between atoms: _137  and  _138
REMARK   61  A    between atoms: _141  and  _143
REMARK   62  A    between atoms: _143  and  _144
REMARK   63  A    between atoms: _146  and  _148
REMARK   64  A    between atoms: _148  and  _149
REMARK   65  A    between atoms: _151  and  _153
REMARK   66  A    between atoms: _153  and  _154
REMARK   67  A    between atoms: _153  and  _156
REMARK   68  A    between atoms: _156  and  _157
REMARK   69  A    between atoms: _163  and  _165
REMARK   70  A    between atoms: _165  and  _166
REMARK   71  A    between atoms: _165  and  _168
REMARK   72  A    between atoms: _168  and  _169
REMARK   73  A    between atoms: _172  and  _174
REMARK   74  A    between atoms: _174  and  _175
REMARK   75  A    between atoms: _174  and  _177
REMARK   76  A    between atoms: _177  and  _178
REMARK   77  A    between atoms: _181  and  _183
REMARK   78  A    between atoms: _183  and  _184
REMARK   79  A    between atoms: _183  and  _186
REMARK   80  A    between atoms: _186  and  _187
REMARK   81  A    between atoms: _191  and  _192
REMARK   82  A    between atoms: _197  and  _199
REMARK   83  A    between atoms: _199  and  _200
REMARK   84  A    between atoms: _199  and  _202
REMARK   85  A    between atoms: _205  and  _207
REMARK   86  A    between atoms: _207  and  _208
REMARK   87  A    between atoms: _207  and  _210
REMARK   88  A    between atoms: _210  and  _211
REMARK   89  A    between atoms: _216  and  _218
REMARK   90  A    between atoms: _218  and  _219
REMARK   91  A    between atoms: _218  and  _221
REMARK   92  A    between atoms: _221  and  _222
REMARK   93  A    between atoms: _225  and  _227
REMARK   94  A    between atoms: _227  and  _228
REMARK   95  A    between atoms: _227  and  _230
REMARK   96  A    between atoms: _230  and  _231
REMARK   97  A    between atoms: _234  and  _236
REMARK   98  A    between atoms: _236  and  _237
REMARK   99  A    between atoms: _239  and  _241
REMARK  100  A    between atoms: _241  and  _242
REMARK  101  A    between atoms: _241  and  _244
REMARK  102  A    between atoms: _244  and  _245
REMARK  103  A    between atoms: _245  and  _246
REMARK  104  A    between atoms: _246  and  _247
REMARK  105  A    between atoms: _256  and  _258
REMARK  106  A    between atoms: _258  and  _259
REMARK  107  A    between atoms: _258  and  _261
REMARK  108  A    between atoms: _261  and  _262
REMARK  109  A    between atoms: _267  and  _269
REMARK  110  A    between atoms: _269  and  _270
REMARK  111  A    between atoms: _269  and  _272
REMARK  112  A    between atoms: _272  and  _273
REMARK  113  A    between atoms: _273  and  _274
REMARK  114  A    between atoms: _274  and  _275
REMARK  115  A    between atoms: _284  and  _286
REMARK  116  A    between atoms: _286  and  _287
REMARK  117  A    between atoms: _286  and  _289
REMARK  118  A    between atoms: _289  and  _290
REMARK  119  A    between atoms: _293  and  _295
REMARK  120  A    between atoms: _295  and  _296
REMARK  121  A    between atoms: _295  and  _298
REMARK  122  A    between atoms: _298  and  _299
REMARK  123  A    between atoms: _302  and  _304
REMARK  124  A    between atoms: _304  and  _305
REMARK  125  A    between atoms: _304  and  _307
REMARK  126  A    between atoms: _307  and  _308
REMARK  127  A    between atoms: _311  and  _313
REMARK  128  A    between atoms: _313  and  _314
REMARK  129  A    between atoms: _313  and  _316
REMARK  130  A    between atoms: _316  and  _317
REMARK  131  A    between atoms: _320  and  _322
REMARK  132  A    between atoms: _322  and  _323
REMARK  133  A    between atoms: _322  and  _325
REMARK  134  A    between atoms: _325  and  _326
REMARK  135  A    between atoms: _329  and  _331
REMARK  136  A    between atoms: _331  and  _332
REMARK  137  A    between atoms: _334  and  _336
REMARK  138  A    between atoms: _336  and  _337
REMARK  139  A    between atoms: _340  and  _342
REMARK  140  A    between atoms: _342  and  _343
REMARK  141  A    between atoms: _342  and  _345
REMARK  142  A    between atoms: _345  and  _346
REMARK  143  A    between atoms: _349  and  _351
REMARK  144  A    between atoms: _351  and  _352
REMARK  145  A    between atoms: _351  and  _354
REMARK  146  A    between atoms: _354  and  _355
REMARK  147  A    between atoms: _358  and  _360
REMARK  148  A    between atoms: _360  and  _361
REMARK  149  A    between atoms: _360  and  _363
REMARK  150  A    between atoms: _363  and  _364
REMARK  151  A    between atoms: _367  and  _369
REMARK  152  A    between atoms: _369  and  _370
REMARK  153  A    between atoms: _369  and  _372
REMARK  154  A    between atoms: _375  and  _377
REMARK  155  A    between atoms: _377  and  _378
REMARK  156  A    between atoms: _377  and  _380
REMARK  157  A    between atoms: _380  and  _381
REMARK  158  A    between atoms: _381  and  _382
REMARK  159  A    between atoms: _382  and  _383
REMARK  160  A    between atoms: _383  and  _384
REMARK  161  A    between atoms: _388  and  _390
REMARK  162  A    between atoms: _390  and  _391
REMARK  163  A    between atoms: _390  and  _393
REMARK  164  A    between atoms: _393  and  _394
REMARK  165  A    between atoms: _394  and  _395
REMARK  166  A    between atoms: _397  and  _399
REMARK  167  A    between atoms: _399  and  _400
REMARK  168  A    between atoms: _399  and  _402
REMARK  169  A    between atoms: _402  and  _403
REMARK  170  A    between atoms: _406  and  _408
REMARK  171  A    between atoms: _408  and  _409
REMARK  172  A    between atoms: _411  and  _413
REMARK  173  A    between atoms: _413  and  _414
REMARK  174  A    between atoms: _416  and  _418
REMARK  175  A    between atoms: _418  and  _419
REMARK  176  A    between atoms: _418  and  _421
REMARK  177  A    between atoms: _421  and  _422
REMARK  178  A    between atoms: _425  and  _427
REMARK  179  A    between atoms: _427  and  _428
REMARK  180  A    between atoms: _430  and  _432
REMARK  181  A    between atoms: _432  and  _433
REMARK  182  A    between atoms: _435  and  _437
REMARK  183  A    between atoms: _437  and  _438
REMARK  184  A    between atoms: _437  and  _440
REMARK  185  A    between atoms: _440  and  _441
REMARK  186  A    between atoms: _447  and  _449
REMARK  187  A    between atoms: _449  and  _450
REMARK  188  A    between atoms: _449  and  _452
REMARK  189  A    between atoms: _452  and  _453
REMARK  190  A    between atoms: _456  and  _458
REMARK  191  A    between atoms: _458  and  _459
REMARK  192  A    between atoms: _458  and  _461
REMARK  193  A    between atoms: _464  and  _466
REMARK  194  A    between atoms: _466  and  _467
REMARK  195  A    between atoms: _466  and  _469
REMARK  196  A    between atoms: _469  and  _470
REMARK  197  A    between atoms: _473  and  _475
REMARK  198  A    between atoms: _475  and  _476
REMARK  199  A    between atoms: _475  and  _478
REMARK  200  A    between atoms: _478  and  _479
REMARK  201  A    between atoms: _483  and  _484
REMARK  202  A    between atoms: _489  and  _491
REMARK  203  A    between atoms: _491  and  _492
REMARK  204  A    between atoms: _491  and  _494
REMARK  205  A    between atoms: _497  and  _499
REMARK  206  A    between atoms: _499  and  _500
REMARK  207  A    between atoms: _499  and  _502
REMARK  208  A    between atoms: _502  and  _503
REMARK  209  A    between atoms: _508  and  _510
REMARK  210  A    between atoms: _510  and  _511
REMARK  211  A    between atoms: _510  and  _513
REMARK  212  A    between atoms: _513  and  _514
REMARK  213  A    between atoms: _517  and  _519
REMARK  214  A    between atoms: _519  and  _520
REMARK  215  A    between atoms: _519  and  _522
REMARK  216  A    between atoms: _522  and  _523
REMARK  217  A    between atoms: _526  and  _528
REMARK  218  A    between atoms: _528  and  _529
REMARK  219  A    between atoms: _531  and  _533
REMARK  220  A    between atoms: _533  and  _534
REMARK  221  A    between atoms: _533  and  _536
REMARK  222  A    between atoms: _536  and  _537
REMARK  223  A    between atoms: _537  and  _538
REMARK  224  A    between atoms: _538  and  _539
REMARK                            x       y       z     vdW  Elec       q    Type
REMARK                         _______ _______ _______ _____ _____    ______ ____
ROOT
ATOM      1  C   GLY A   5       5.840  -1.860  19.924  0.00  0.00    +0.243 C 
ATOM      2  N   ALA A   6       7.102  -1.762  20.342  0.00  0.00    -0.297 N 
ATOM      3  H   ALA A   6       7.347  -1.000  21.006  0.00  0.00    +0.150 HD
ATOM      4  O   GLY A   5       5.464  -2.719  19.130  0.00  0.00    -0.273 OA
ENDROOT
BRANCH   2   5
ATOM      5  CA  ALA A   6       8.155  -2.674  19.911  0.00  0.00    +0.149 C 
ATOM      6  CB  ALA A   6       9.291  -1.901  19.182  0.00  0.00    +0.031 C 
BRANCH   5   7
ATOM      7  C   ALA A   6       8.733  -3.395  21.138  0.00  0.00    +0.241 C 
ATOM      8  O   ALA A   6       9.136  -2.742  22.087  0.00  0.00    -0.273 OA
ATOM      9  N   ASP A   7       8.755  -4.726  21.135  0.00  0.00    -0.297 N 
ATOM     10  H   ASP A   7       8.350  -5.250  20.333  0.00  0.00    +0.150 HD
BRANCH   9  11
ATOM     11  CA  ASP A   7       9.345  -5.450  22.253  0.00  0.00    +0.160 C 
BRANCH  11  12
ATOM     12  C   ASP A   7      10.860  -5.264  22.205  0.00  0.00    +0.241 C 
ATOM     13  O   ASP A   7      11.528  -5.173  23.236  0.00  0.00    -0.273 OA
ATOM     14  N   ASP A   8      11.391  -5.174  20.993  0.00  0.00    -0.297 N 
ATOM     15  H   ASP A   8      10.756  -5.182  20.170  0.00  0.00    +0.150 HD
BRANCH  14  16
ATOM     16  CA  ASP A   8      12.824  -5.064  20.765  0.00  0.00    +0.160 C 
BRANCH  16  17
ATOM     17  C   ASP A   8      13.201  -3.777  20.104  0.00  0.00    +0.241 C 
ATOM     18  N   THR A   9      14.507  -3.572  20.029  0.00  0.00    -0.295 N 
ATOM     19  H   THR A   9      15.136  -4.284  20.453  0.00  0.00    +0.150 HD
ATOM     20  O   ASP A   8      12.352  -3.075  19.566  0.00  0.00    -0.273 OA
BRANCH  18  21
ATOM     21  CA  THR A   9      15.112  -2.431  19.400  0.00  0.00    +0.176 C 
BRANCH  21  22
ATOM     22  C   THR A   9      15.688  -2.887  18.062  0.00  0.00    +0.243 C 
ATOM     23  O   THR A   9      16.481  -3.821  17.997  0.00  0.00    -0.273 OA
ATOM     24  N   VAL A  10      15.304  -2.201  17.004  0.00  0.00    -0.298 N 
ATOM     25  H   VAL A  10      14.661  -1.392  17.119  0.00  0.00    +0.150 HD
BRANCH  24  26
ATOM     26  CA  VAL A  10      15.768  -2.563  15.690  0.00  0.00    +0.137 C 
BRANCH  26  27
ATOM     27  CB  VAL A  10      14.570  -2.902  14.778  0.00  0.00    +0.026 C 
ATOM     28  CG2 VAL A  10      13.616  -3.842  15.507  0.00  0.00    +0.002 C 
ATOM     29  CG1 VAL A  10      15.056  -3.539  13.470  0.00  0.00    +0.002 C 
ENDBRANCH  26  27
BRANCH  26  30
ATOM     30  C   VAL A  10      16.532  -1.415  15.094  0.00  0.00    +0.227 C 
ATOM     31  O   VAL A  10      16.011  -0.310  14.983  0.00  0.00    -0.286 OA
ENDBRANCH  26  30
ENDBRANCH  24  26
ENDBRANCH  21  22
BRANCH  21  32
ATOM     32  CB  THR A   9      16.214  -1.892  20.293  0.00  0.00    +0.137 C 
ATOM     33  CG2 THR A   9      17.065  -0.770  19.577  0.00  0.00    +0.034 C 
BRANCH  32  34
ATOM     34  OG1 THR A   9      15.582  -1.384  21.465  0.00  0.00    -0.382 OA
ATOM     35  HG1 THR A   9      15.089  -2.115  21.916  0.00  0.00    +0.210 HD
ENDBRANCH  32  34
ENDBRANCH  21  32
ENDBRANCH  18  21
ENDBRANCH  16  17
BRANCH  16  36
ATOM     36  CB  ASP A   8      13.271  -6.179  19.811  0.00  0.00    +0.143 C 
BRANCH  36  37
ATOM     37  CG  ASP A   8      12.792  -7.551  20.242  0.00  0.00    +0.367 C 
ATOM     38  OD2 ASP A   8      13.348  -8.083  21.219  0.00  0.00    -0.246 OA
ATOM     39  OD1 ASP A   8      11.851  -8.074  19.608  0.00  0.00    -0.246 OA
ENDBRANCH  36  37
ENDBRANCH  16  36
ENDBRANCH  14  16
ENDBRANCH  11  12
BRANCH  11  40
ATOM     40  CB  ASP A   7       9.103  -6.950  22.146  0.00  0.00    +0.143 C 
BRANCH  40  41
ATOM     41  CG  ASP A   7       7.639  -7.325  22.120  0.00  0.00    +0.367 C 
ATOM     42  OD2 ASP A   7       6.776  -6.518  22.527  0.00  0.00    -0.246 OA
ATOM     43  OD1 ASP A   7       7.359  -8.450  21.669  0.00  0.00    -0.246 OA
ENDBRANCH  40  41
ENDBRANCH  11  40
ENDBRANCH   9  11
ENDBRANCH   5   7
ENDBRANCH   2   5
BRANCH   1  44
ATOM     44  CA  GLY A   5       4.857  -0.847  20.501  0.00  0.00    +0.176 C 
BRANCH  44  47
ATOM     45  C   THR A   4       5.618   0.410  22.443  0.00  0.00    +0.243 C 
ATOM     46  O   THR A   4       5.206  -0.454  23.200  0.00  0.00    -0.273 OA
ATOM     47  N   GLY A   5       5.478   0.321  21.122  0.00  0.00    -0.295 N 
ATOM     48  H   GLY A   5       5.817   1.098  20.520  0.00  0.00    +0.150 HD
BRANCH  45  49
ATOM     49  CA  THR A   4       6.277   1.675  23.001  0.00  0.00    +0.176 C 
BRANCH  49  51
ATOM     50  C   ASP A   3       7.878   2.070  21.259  0.00  0.00    +0.241 C 
ATOM     51  N   THR A   4       6.810   2.466  21.918  0.00  0.00    -0.295 N 
ATOM     52  H   THR A   4       6.345   3.359  21.656  0.00  0.00    +0.150 HD
ATOM     53  O   ASP A   3       8.398   0.982  21.464  0.00  0.00    -0.273 OA
BRANCH  50  54
ATOM     54  CA  ASP A   3       8.346   2.967  20.116  0.00  0.00    +0.160 C 
BRANCH  54  56
ATOM     55  C   LEU A   2       9.439   5.122  20.319  0.00  0.00    +0.241 C 
ATOM     56  N   ASP A   3       9.499   3.803  20.397  0.00  0.00    -0.297 N 
ATOM     57  H   ASP A   3      10.397   3.353  20.667  0.00  0.00    +0.150 HD
ATOM     58  O   LEU A   2       8.382   5.737  20.185  0.00  0.00    -0.273 OA
BRANCH  55  59
ATOM     59  CA  LEU A   2      10.756   5.854  20.524  0.00  0.00    +0.149 C 
BRANCH  59  61
ATOM     60  C   LEU A   1      11.614   5.751  18.240  0.00  0.00    +0.238 C 
ATOM     61  N   LEU A   2      11.073   6.459  19.229  0.00  0.00    -0.297 N 
ATOM     62  H   LEU A   2      10.870   7.468  19.078  0.00  0.00    +0.150 HD
ATOM     63  O   LEU A   1      11.914   4.556  18.355  0.00  0.00    -0.274 OA
BRANCH  60  64
ATOM     64  CA  LEU A   1      11.846   6.467  16.911  0.00  0.00    +0.145 C 
BRANCH  64  65
ATOM     65  N   LEU A   1      13.236   6.384  16.521  0.00  0.00    -0.238 NA
ATOM     66  H   LEU A   1      13.526   5.588  15.918  0.00  0.00    +0.142 HD
ENDBRANCH  64  65
BRANCH  64  67
ATOM     67  CB  LEU A   1      11.041   5.770  15.813  0.00  0.00    +0.026 C 
BRANCH  67  68
ATOM     68  CG  LEU A   1       9.575   5.503  16.072  0.00  0.00    +0.002 C 
ATOM     69  CD2 LEU A   1       8.798   6.819  15.952  0.00  0.00    +0.000 C 
ATOM     70  CD1 LEU A   1       9.100   4.486  15.070  0.00  0.00    +0.000 C 
ENDBRANCH  67  68
ENDBRANCH  64  67
ENDBRANCH  60  64
ENDBRANCH  59  61
BRANCH  59  71
ATOM     71  CB  LEU A   2      10.615   6.910  21.609  0.00  0.00    +0.029 C 
BRANCH  71  72
ATOM     72  CG  LEU A   2      11.861   7.772  21.773  0.00  0.00    +0.002 C 
ATOM     73  CD2 LEU A   2      11.656   8.674  22.956  0.00  0.00    +0.000 C 
ATOM     74  CD1 LEU A   2      13.108   6.919  21.951  0.00  0.00    +0.000 C 
ENDBRANCH  71  72
ENDBRANCH  59  71
ENDBRANCH  55  59
ENDBRANCH  54  56
BRANCH  54  75
ATOM     75  CB  ASP A   3       8.701   2.093  18.896  0.00  0.00    +0.143 C 
BRANCH  75  76
ATOM     76  CG  ASP A   3       7.512   1.349  18.333  0.00  0.00    +0.367 C 
ATOM     77  OD2 ASP A   3       6.372   1.492  18.849  0.00  0.00    -0.246 OA
ATOM     78  OD1 ASP A   3       7.730   0.643  17.331  0.00  0.00    -0.246 OA
ENDBRANCH  75  76
ENDBRANCH  54  75
ENDBRANCH  50  54
ENDBRANCH  49  51
BRANCH  49  79
ATOM     79  CB  THR A   4       5.251   2.501  23.782  0.00  0.00    +0.137 C 
ATOM     80  CG2 THR A   4       5.922   3.777  24.334  0.00  0.00    +0.034 C 
BRANCH  79  81
ATOM     81  OG1 THR A   4       4.166   2.861  22.911  0.00  0.00    -0.382 OA
ATOM     82  HG1 THR A   4       3.736   2.039  22.565  0.00  0.00    +0.210 HD
ENDBRANCH  79  81
ENDBRANCH  49  79
ENDBRANCH  45  49
ENDBRANCH  44  47
ENDBRANCH   1  44
TORSDOF 35
REMARK  Name = ../refined-set-2016/1hih/1hih_pocket.pdb
REMARK  224 active torsions:
REMARK  status: ('A' for Active; 'I' for Inactive)
REMARK    1  A    between atoms: _1  and  _3
REMARK    2  A    between atoms: _3  and  _4
REMARK    3  A    between atoms: _3  and  _6
REMARK    4  A    between atoms: _6  and  _7
REMARK    5  A    between atoms: _7  and  _8
REMARK    6  A    between atoms: _8  and  _9
REMARK    7  A    between atoms: _18  and  _20
REMARK    8  A    between atoms: _20  and  _21
REMARK    9  A    between atoms: _20  and  _23
REMARK   10  A    between atoms: _23  and  _24
REMARK   11  A    between atoms: _27  and  _29
REMARK   12  A    between atoms: _29  and  _30
REMARK   13  A    between atoms: _29  and  _32
REMARK   14  A    between atoms: _32  and  _33
REMARK   15  A    between atoms: _36  and  _38
REMARK   16  A    between atoms: _38  and  _39
REMARK   17  A    between atoms: _38  and  _41
REMARK   18  A    between atoms: _41  and  _42
REMARK   19  A    between atoms: _45  and  _47
REMARK   20  A    between atoms: _47  and  _48
REMARK   21  A    between atoms: _47  and  _50
REMARK   22  A    between atoms: _50  and  _51
REMARK   23  A    between atoms: _54  and  _56
REMARK   24  A    between atoms: _56  and  _57
REMARK   25  A    between atoms: _59  and  _61
REMARK   26  A    between atoms: _61  and  _62
REMARK   27  A    between atoms: _65  and  _67
REMARK   28  A    between atoms: _67  and  _68
REMARK   29  A    between atoms: _67  and  _70
REMARK   30  A    between atoms: _70  and  _71
REMARK   31  A    between atoms: _74  and  _76
REMARK   32  A    between atoms: _76  and  _77
REMARK   33  A    between atoms: _76  and  _79
REMARK   34  A    between atoms: _79  and  _80
REMARK   35  A    between atoms: _83  and  _85
REMARK   36  A    between atoms: _85  and  _86
REMARK   37  A    between atoms: _85  and  _88
REMARK   38  A    between atoms: _88  and  _89
REMARK   39  A    between atoms: _92  and  _94
REMARK   40  A    between atoms: _94  and  _95
REMARK   41  A    between atoms: _94  and  _97
REMARK   42  A    between atoms: _100  and  _102
REMARK   43  A    between atoms: _102  and  _103
REMARK   44  A    between atoms: _102  and  _105
REMARK   45  A    between atoms: _105  and  _106
REMARK   46  A    between atoms: _106  and  _107
REMARK   47  A    between atoms: _107  and  _108
REMARK   48  A    between atoms: _108  and  _109
REMARK   49  A    between atoms: _113  and  _115
REMARK   50  A    between atoms: _115  and  _116
REMARK   51  A    between atoms: _115  and  _118
REMARK   52  A    between atoms: _118  and  _119
REMARK   53  A    between atoms: _122  and  _124
REMARK   54  A    between atoms: _124  and  _125
REMARK   55  A    between atoms: _127  and  _129
REMARK   56  A    between atoms: _129  and  _130
REMARK   57  A    between atoms: _132  and  _134
REMARK   58  A    between atoms: _134  and  _135
REMARK   59  A    between atoms: _134  and  _137
REMARK   60  A    between atoms: _137  and  _138
REMARK   61  A    between atoms: _141  and  _143
REMARK   62  A    between atoms: _143  and  _144
REMARK   63  A    between atoms: _146  and  _148
REMARK   64  A    between atoms: _148  and  _149
REMARK   65  A    between atoms: _151  and  _153
REMARK   66  A    between atoms: _153  and  _154
REMARK   67  A    between atoms: _153  and  _156
REMARK   68  A    between atoms: _156  and  _157
REMARK   69  A    between atoms: _163  and  _165
REMARK   70  A    between atoms: _165  and  _166
REMARK   71  A    between atoms: _165  and  _168
REMARK   72  A    between atoms: _168  and  _169
REMARK   73  A    between atoms: _172  and  _174
REMARK   74  A    between atoms: _174  and  _175
REMARK   75  A    between atoms: _174  and  _177
REMARK   76  A    between atoms: _177  and  _178
REMARK   77  A    between atoms: _181  and  _183
REMARK   78  A    between atoms: _183  and  _184
REMARK   79  A    between atoms: _183  and  _186
REMARK   80  A    between atoms: _186  and  _187
REMARK   81  A    between atoms: _191  and  _192
REMARK   82  A    between atoms: _197  and  _199
REMARK   83  A    between atoms: _199  and  _200
REMARK   84  A    between atoms: _199  and  _202
REMARK   85  A    between atoms: _205  and  _207
REMARK   86  A    between atoms: _207  and  _208
REMARK   87  A    between atoms: _207  and  _210
REMARK   88  A    between atoms: _210  and  _211
REMARK   89  A    between atoms: _216  and  _218
REMARK   90  A    between atoms: _218  and  _219
REMARK   91  A    between atoms: _218  and  _221
REMARK   92  A    between atoms: _221  and  _222
REMARK   93  A    between atoms: _225  and  _227
REMARK   94  A    between atoms: _227  and  _228
REMARK   95  A    between atoms: _227  and  _230
REMARK   96  A    between atoms: _230  and  _231
REMARK   97  A    between atoms: _234  and  _236
REMARK   98  A    between atoms: _236  and  _237
REMARK   99  A    between atoms: _239  and  _241
REMARK  100  A    between atoms: _241  and  _242
REMARK  101  A    between atoms: _241  and  _244
REMARK  102  A    between atoms: _244  and  _245
REMARK  103  A    between atoms: _245  and  _246
REMARK  104  A    between atoms: _246  and  _247
REMARK  105  A    between atoms: _256  and  _258
REMARK  106  A    between atoms: _258  and  _259
REMARK  107  A    between atoms: _258  and  _261
REMARK  108  A    between atoms: _261  and  _262
REMARK  109  A    between atoms: _267  and  _269
REMARK  110  A    between atoms: _269  and  _270
REMARK  111  A    between atoms: _269  and  _272
REMARK  112  A    between atoms: _272  and  _273
REMARK  113  A    between atoms: _273  and  _274
REMARK  114  A    between atoms: _274  and  _275
REMARK  115  A    between atoms: _284  and  _286
REMARK  116  A    between atoms: _286  and  _287
REMARK  117  A    between atoms: _286  and  _289
REMARK  118  A    between atoms: _289  and  _290
REMARK  119  A    between atoms: _293  and  _295
REMARK  120  A    between atoms: _295  and  _296
REMARK  121  A    between atoms: _295  and  _298
REMARK  122  A    between atoms: _298  and  _299
REMARK  123  A    between atoms: _302  and  _304
REMARK  124  A    between atoms: _304  and  _305
REMARK  125  A    between atoms: _304  and  _307
REMARK  126  A    between atoms: _307  and  _308
REMARK  127  A    between atoms: _311  and  _313
REMARK  128  A    between atoms: _313  and  _314
REMARK  129  A    between atoms: _313  and  _316
REMARK  130  A    between atoms: _316  and  _317
REMARK  131  A    between atoms: _320  and  _322
REMARK  132  A    between atoms: _322  and  _323
REMARK  133  A    between atoms: _322  and  _325
REMARK  134  A    between atoms: _325  and  _326
REMARK  135  A    between atoms: _329  and  _331
REMARK  136  A    between atoms: _331  and  _332
REMARK  137  A    between atoms: _334  and  _336
REMARK  138  A    between atoms: _336  and  _337
REMARK  139  A    between atoms: _340  and  _342
REMARK  140  A    between atoms: _342  and  _343
REMARK  141  A    between atoms: _342  and  _345
REMARK  142  A    between atoms: _345  and  _346
REMARK  143  A    between atoms: _349  and  _351
REMARK  144  A    between atoms: _351  and  _352
REMARK  145  A    between atoms: _351  and  _354
REMARK  146  A    between atoms: _354  and  _355
REMARK  147  A    between atoms: _358  and  _360
REMARK  148  A    between atoms: _360  and  _361
REMARK  149  A    between atoms: _360  and  _363
REMARK  150  A    between atoms: _363  and  _364
REMARK  151  A    between atoms: _367  and  _369
REMARK  152  A    between atoms: _369  and  _370
REMARK  153  A    between atoms: _369  and  _372
REMARK  154  A    between atoms: _375  and  _377
REMARK  155  A    between atoms: _377  and  _378
REMARK  156  A    between atoms: _377  and  _380
REMARK  157  A    between atoms: _380  and  _381
REMARK  158  A    between atoms: _381  and  _382
REMARK  159  A    between atoms: _382  and  _383
REMARK  160  A    between atoms: _383  and  _384
REMARK  161  A    between atoms: _388  and  _390
REMARK  162  A    between atoms: _390  and  _391
REMARK  163  A    between atoms: _390  and  _393
REMARK  164  A    between atoms: _393  and  _394
REMARK  165  A    between atoms: _394  and  _395
REMARK  166  A    between atoms: _397  and  _399
REMARK  167  A    between atoms: _399  and  _400
REMARK  168  A    between atoms: _399  and  _402
REMARK  169  A    between atoms: _402  and  _403
REMARK  170  A    between atoms: _406  and  _408
REMARK  171  A    between atoms: _408  and  _409
REMARK  172  A    between atoms: _411  and  _413
REMARK  173  A    between atoms: _413  and  _414
REMARK  174  A    between atoms: _416  and  _418
REMARK  175  A    between atoms: _418  and  _419
REMARK  176  A    between atoms: _418  and  _421
REMARK  177  A    between atoms: _421  and  _422
REMARK  178  A    between atoms: _425  and  _427
REMARK  179  A    between atoms: _427  and  _428
REMARK  180  A    between atoms: _430  and  _432
REMARK  181  A    between atoms: _432  and  _433
REMARK  182  A    between atoms: _435  and  _437
REMARK  183  A    between atoms: _437  and  _438
REMARK  184  A    between atoms: _437  and  _440
REMARK  185  A    between atoms: _440  and  _441
REMARK  186  A    between atoms: _447  and  _449
REMARK  187  A    between atoms: _449  and  _450
REMARK  188  A    between atoms: _449  and  _452
REMARK  189  A    between atoms: _452  and  _453
REMARK  190  A    between atoms: _456  and  _458
REMARK  191  A    between atoms: _458  and  _459
REMARK  192  A    between atoms: _458  and  _461
REMARK  193  A    between atoms: _464  and  _466
REMARK  194  A    between atoms: _466  and  _467
REMARK  195  A    between atoms: _466  and  _469
REMARK  196  A    between atoms: _469  and  _470
REMARK  197  A    between atoms: _473  and  _475
REMARK  198  A    between atoms: _475  and  _476
REMARK  199  A    between atoms: _475  and  _478
REMARK  200  A    between atoms: _478  and  _479
REMARK  201  A    between atoms: _483  and  _484
REMARK  202  A    between atoms: _489  and  _491
REMARK  203  A    between atoms: _491  and  _492
REMARK  204  A    between atoms: _491  and  _494
REMARK  205  A    between atoms: _497  and  _499
REMARK  206  A    between atoms: _499  and  _500
REMARK  207  A    between atoms: _499  and  _502
REMARK  208  A    between atoms: _502  and  _503
REMARK  209  A    between atoms: _508  and  _510
REMARK  210  A    between atoms: _510  and  _511
REMARK  211  A    between atoms: _510  and  _513
REMARK  212  A    between atoms: _513  and  _514
REMARK  213  A    between atoms: _517  and  _519
REMARK  214  A    between atoms: _519  and  _520
REMARK  215  A    between atoms: _519  and  _522
REMARK  216  A    between atoms: _522  and  _523
REMARK  217  A    between atoms: _526  and  _528
REMARK  218  A    between atoms: _528  and  _529
REMARK  219  A    between atoms: _531  and  _533
REMARK  220  A    between atoms: _533  and  _534
REMARK  221  A    between atoms: _533  and  _536
REMARK  222  A    between atoms: _536  and  _537
REMARK  223  A    between atoms: _537  and  _538
REMARK  224  A    between atoms: _538  and  _539
REMARK                            x       y       z     vdW  Elec       q    Type
REMARK                         _______ _______ _______ _____ _____    ______ ____
ROOT
ATOM      1  C   GLY A   5       4.189  -6.813  11.823  0.00  0.00    +0.243 C 
ATOM      2  O   GLY A   5       3.736  -7.936  11.564  0.00  0.00    -0.273 OA
ATOM      3  N   ILE A   6       3.586  -5.679  11.501  0.00  0.00    -0.297 N 
ATOM      4  H   ILE A   6       4.092  -4.785  11.662  0.00  0.00    +0.150 HD
ENDROOT
BRANCH   3   5
ATOM      5  CA  ILE A   6       2.255  -5.628  10.935  0.00  0.00    +0.149 C 
BRANCH   5   6
ATOM      6  C   ILE A   6       2.082  -6.454   9.631  0.00  0.00    +0.241 C 
ATOM      7  O   ILE A   6       1.023  -7.079   9.397  0.00  0.00    -0.273 OA
ATOM      8  N   GLY A   7       3.106  -6.477   8.786  0.00  0.00    -0.295 N 
ATOM      9  H   GLY A   7       3.996  -5.986   9.007  0.00  0.00    +0.150 HD
BRANCH   8  10
ATOM     10  CA  GLY A   7       2.944  -7.208   7.547  0.00  0.00    +0.176 C 
BRANCH  10  11
ATOM     11  C   GLY A   7       3.611  -8.565   7.452  0.00  0.00    +0.243 C 
ATOM     12  N   GLY A   8       4.339  -8.985   8.473  0.00  0.00    -0.295 N 
ATOM     13  H   GLY A   8       4.430  -8.398   9.326  0.00  0.00    +0.150 HD
ATOM     14  O   GLY A   7       3.460  -9.235   6.451  0.00  0.00    -0.273 OA
BRANCH  12  15
ATOM     15  CA  GLY A   8       5.006 -10.260   8.398  0.00  0.00    +0.176 C 
BRANCH  15  16
ATOM     16  C   GLY A   8       6.352 -10.142   9.091  0.00  0.00    +0.243 C 
ATOM     17  O   GLY A   8       6.548  -9.226   9.900  0.00  0.00    -0.273 OA
ATOM     18  N   PHE A   9       7.292 -11.009   8.726  0.00  0.00    -0.297 N 
ATOM     19  H   PHE A   9       7.079 -11.679   7.959  0.00  0.00    +0.150 HD
BRANCH  18  20
ATOM     20  CA  PHE A   9       8.603 -11.063   9.350  0.00  0.00    +0.153 C 
BRANCH  20  21
ATOM     21  C   PHE A   9       9.781 -10.629   8.512  0.00  0.00    +0.241 C 
ATOM     22  N   ILE A  10      10.830 -10.181   9.175  0.00  0.00    -0.298 N 
ATOM     23  H   ILE A  10      10.788 -10.075  10.209  0.00  0.00    +0.150 HD
ATOM     24  O   PHE A   9       9.759 -10.693   7.293  0.00  0.00    -0.273 OA
BRANCH  22  25
ATOM     25  CA  ILE A  10      12.026  -9.841   8.467  0.00  0.00    +0.137 C 
BRANCH  25  26
ATOM     26  C   ILE A  10      13.142 -10.481   9.260  0.00  0.00    +0.227 C 
ATOM     27  O   ILE A  10      13.006 -10.726  10.477  0.00  0.00    -0.286 OA
ENDBRANCH  25  26
BRANCH  25  28
ATOM     28  CB  ILE A  10      12.278  -8.328   8.366  0.00  0.00    +0.026 C 
ATOM     29  CG2 ILE A  10      11.238  -7.689   7.460  0.00  0.00    +0.002 C 
BRANCH  28  30
ATOM     30  CG1 ILE A  10      12.329  -7.703   9.754  0.00  0.00    +0.002 C 
ATOM     31  CD1 ILE A  10      13.068  -6.410   9.763  0.00  0.00    +0.000 C 
ENDBRANCH  28  30
ENDBRANCH  25  28
ENDBRANCH  22  25
ENDBRANCH  20  21
BRANCH  20  32
ATOM     32  CB  PHE A   9       8.881 -12.488   9.819  0.00  0.00    +0.055 C 
BRANCH  32  33
ATOM     33  CG  PHE A   9       7.972 -12.964  10.919  0.00  0.00    -0.020 A 
ATOM     34  CD2 PHE A   9       8.479 -13.224  12.180  0.00  0.00    -0.004 A 
ATOM     35  CE2 PHE A   9       7.645 -13.656  13.201  0.00  0.00    -0.000 A 
ATOM     36  CZ  PHE A   9       6.286 -13.831  12.954  0.00  0.00    -0.000 A 
ATOM     37  CE1 PHE A   9       5.777 -13.578  11.697  0.00  0.00    -0.000 A 
ATOM     38  CD1 PHE A   9       6.615 -13.149  10.693  0.00  0.00    -0.004 A 
ENDBRANCH  32  33
ENDBRANCH  20  32
ENDBRANCH  18  20
ENDBRANCH  15  16
ENDBRANCH  12  15
ENDBRANCH  10  11
ENDBRANCH   8  10
ENDBRANCH   5   6
BRANCH   5  39
ATOM     39  CB  ILE A   6       1.842  -4.119  10.721  0.00  0.00    +0.027 C 
ATOM     40  CG2 ILE A   6       2.324  -3.599   9.389  0.00  0.00    +0.002 C 
BRANCH  39  41
ATOM     41  CG1 ILE A   6       0.338  -3.930  10.864  0.00  0.00    +0.002 C 
ATOM     42  CD1 ILE A   6      -0.057  -3.641  12.246  0.00  0.00    +0.000 C 
ENDBRANCH  39  41
ENDBRANCH   5  39
ENDBRANCH   3   5
BRANCH   1  43
ATOM     43  CA  GLY A   5       5.560  -6.663  12.428  0.00  0.00    +0.176 C 
BRANCH  43  46
ATOM     44  C   GLY A   4       6.884  -8.463  13.276  0.00  0.00    +0.243 C 
ATOM     45  O   GLY A   4       7.054  -7.889  14.335  0.00  0.00    -0.273 OA
ATOM     46  N   GLY A   5       6.172  -7.958  12.297  0.00  0.00    -0.295 N 
ATOM     47  H   GLY A   5       6.049  -8.499  11.418  0.00  0.00    +0.150 HD
BRANCH  44  48
ATOM     48  CA  GLY A   4       7.436  -9.845  13.021  0.00  0.00    +0.176 C 
BRANCH  48  50
ATOM     49  C   ILE A   3       9.827 -10.119  13.092  0.00  0.00    +0.241 C 
ATOM     50  N   GLY A   4       8.666 -10.129  13.724  0.00  0.00    -0.295 N 
ATOM     51  H   GLY A   4       8.638 -10.344  14.741  0.00  0.00    +0.150 HD
ATOM     52  O   ILE A   3       9.947  -9.880  11.888  0.00  0.00    -0.273 OA
BRANCH  49  53
ATOM     53  CA  ILE A   3      11.027 -10.452  13.952  0.00  0.00    +0.149 C 
BRANCH  53  56
ATOM     54  C   MET A   2      12.184 -12.551  13.545  0.00  0.00    +0.241 C 
ATOM     55  O   MET A   2      11.689 -13.040  14.564  0.00  0.00    -0.273 OA
ATOM     56  N   ILE A   3      11.962 -11.285  13.183  0.00  0.00    -0.297 N 
ATOM     57  H   ILE A   3      12.451 -10.888  12.356  0.00  0.00    +0.150 HD
BRANCH  54  58
ATOM     58  CA  MET A   2      13.136 -13.402  12.683  0.00  0.00    +0.149 C 
BRANCH  58  60
ATOM     59  C   LYS A   1      15.533 -13.447  13.251  0.00  0.00    +0.238 C 
ATOM     60  N   MET A   2      14.284 -13.856  13.483  0.00  0.00    -0.297 N 
ATOM     61  H   MET A   2      14.115 -14.524  14.262  0.00  0.00    +0.150 HD
ATOM     62  O   LYS A   1      15.845 -12.740  12.287  0.00  0.00    -0.274 OA
BRANCH  59  63
ATOM     63  CA  LYS A   1      16.616 -13.979  14.202  0.00  0.00    +0.145 C 
BRANCH  63  64
ATOM     64  N   LYS A   1      17.909 -13.921  13.531  0.00  0.00    -0.238 NA
ATOM     65  H   LYS A   1      18.087 -13.214  12.790  0.00  0.00    +0.142 HD
ENDBRANCH  63  64
BRANCH  63  66
ATOM     66  CB  LYS A   1      16.711 -13.132  15.482  0.00  0.00    +0.026 C 
BRANCH  66  67
ATOM     67  CG  LYS A   1      15.539 -13.221  16.431  0.00  0.00    -0.000 C 
BRANCH  67  68
ATOM     68  CD  LYS A   1      15.653 -12.101  17.466  0.00  0.00    -0.024 C 
BRANCH  68  69
ATOM     69  CE  LYS A   1      14.719 -12.288  18.665  0.00  0.00    -0.086 C 
BRANCH  69  70
ATOM     70  NZ  LYS A   1      13.298 -12.343  18.233  0.00  0.00    +0.380 N 
ATOM     71  HZ1 LYS A   1      12.688 -12.470  19.066  0.00  0.00    -0.089 HD
ATOM     72  HZ2 LYS A   1      13.049 -11.455  17.752  0.00  0.00    -0.089 HD
ATOM     73  HZ3 LYS A   1      13.166 -13.142  17.580  0.00  0.00    -0.089 HD
ENDBRANCH  69  70
ENDBRANCH  68  69
ENDBRANCH  67  68
ENDBRANCH  66  67
ENDBRANCH  63  66
ENDBRANCH  59  63
ENDBRANCH  58  60
BRANCH  58  74
ATOM     74  CB  MET A   2      12.354 -14.602  12.150  0.00  0.00    +0.041 C 
BRANCH  74  75
ATOM     75  CG  MET A   2      13.165 -15.496  11.243  0.00  0.00    +0.060 C 
BRANCH  75  76
ATOM     76  SD  MET A   2      13.339 -14.747   9.638  0.00  0.00    -0.139 S 
ATOM     77  CE  MET A   2      11.667 -15.102   8.993  0.00  0.00    +0.069 C 
ENDBRANCH  75  76
ENDBRANCH  74  75
ENDBRANCH  58  74
ENDBRANCH  54  58
ENDBRANCH  53  56
BRANCH  53  78
ATOM     78  CB  ILE A   3      11.606  -9.100  14.474  0.00  0.00    +0.027 C 
ATOM     79  CG2 ILE A   3      12.231  -9.262  15.826  0.00  0.00    +0.002 C 
BRANCH  78  80
ATOM     80  CG1 ILE A   3      12.526  -8.470  13.439  0.00  0.00    +0.002 C 
ATOM     81  CD1 ILE A   3      12.678  -7.013  13.626  0.00  0.00    +0.000 C 
ENDBRANCH  78  80
ENDBRANCH  53  78
ENDBRANCH  49  53
ENDBRANCH  48  50
ENDBRANCH  44  48
ENDBRANCH  43  46
ENDBRANCH   1  43
TORSDOF 36
REMARK  Name = ../refined-set-2016/1hih/1hih_pocket.pdb
REMARK  224 active torsions:
REMARK  status: ('A' for Active; 'I' for Inactive)
REMARK    1  A    between atoms: _1  and  _3
REMARK    2  A    between atoms: _3  and  _4
REMARK    3  A    between atoms: _3  and  _6
REMARK    4  A    between atoms: _6  and  _7
REMARK    5  A    between atoms: _7  and  _8
REMARK    6  A    between atoms: _8  and  _9
REMARK    7  A    between atoms: _18  and  _20
REMARK    8  A    between atoms: _20  and  _21
REMARK    9  A    between atoms: _20  and  _23
REMARK   10  A    between atoms: _23  and  _24
REMARK   11  A    between atoms: _27  and  _29
REMARK   12  A    between atoms: _29  and  _30
REMARK   13  A    between atoms: _29  and  _32
REMARK   14  A    between atoms: _32  and  _33
REMARK   15  A    between atoms: _36  and  _38
REMARK   16  A    between atoms: _38  and  _39
REMARK   17  A    between atoms: _38  and  _41
REMARK   18  A    between atoms: _41  and  _42
REMARK   19  A    between atoms: _45  and  _47
REMARK   20  A    between atoms: _47  and  _48
REMARK   21  A    between atoms: _47  and  _50
REMARK   22  A    between atoms: _50  and  _51
REMARK   23  A    between atoms: _54  and  _56
REMARK   24  A    between atoms: _56  and  _57
REMARK   25  A    between atoms: _59  and  _61
REMARK   26  A    between atoms: _61  and  _62
REMARK   27  A    between atoms: _65  and  _67
REMARK   28  A    between atoms: _67  and  _68
REMARK   29  A    between atoms: _67  and  _70
REMARK   30  A    between atoms: _70  and  _71
REMARK   31  A    between atoms: _74  and  _76
REMARK   32  A    between atoms: _76  and  _77
REMARK   33  A    between atoms: _76  and  _79
REMARK   34  A    between atoms: _79  and  _80
REMARK   35  A    between atoms: _83  and  _85
REMARK   36  A    between atoms: _85  and  _86
REMARK   37  A    between atoms: _85  and  _88
REMARK   38  A    between atoms: _88  and  _89
REMARK   39  A    between atoms: _92  and  _94
REMARK   40  A    between atoms: _94  and  _95
REMARK   41  A    between atoms: _94  and  _97
REMARK   42  A    between atoms: _100  and  _102
REMARK   43  A    between atoms: _102  and  _103
REMARK   44  A    between atoms: _102  and  _105
REMARK   45  A    between atoms: _105  and  _106
REMARK   46  A    between atoms: _106  and  _107
REMARK   47  A    between atoms: _107  and  _108
REMARK   48  A    between atoms: _108  and  _109
REMARK   49  A    between atoms: _113  and  _115
REMARK   50  A    between atoms: _115  and  _116
REMARK   51  A    between atoms: _115  and  _118
REMARK   52  A    between atoms: _118  and  _119
REMARK   53  A    between atoms: _122  and  _124
REMARK   54  A    between atoms: _124  and  _125
REMARK   55  A    between atoms: _127  and  _129
REMARK   56  A    between atoms: _129  and  _130
REMARK   57  A    between atoms: _132  and  _134
REMARK   58  A    between atoms: _134  and  _135
REMARK   59  A    between atoms: _134  and  _137
REMARK   60  A    between atoms: _137  and  _138
REMARK   61  A    between atoms: _141  and  _143
REMARK   62  A    between atoms: _143  and  _144
REMARK   63  A    between atoms: _146  and  _148
REMARK   64  A    between atoms: _148  and  _149
REMARK   65  A    between atoms: _151  and  _153
REMARK   66  A    between atoms: _153  and  _154
REMARK   67  A    between atoms: _153  and  _156
REMARK   68  A    between atoms: _156  and  _157
REMARK   69  A    between atoms: _163  and  _165
REMARK   70  A    between atoms: _165  and  _166
REMARK   71  A    between atoms: _165  and  _168
REMARK   72  A    between atoms: _168  and  _169
REMARK   73  A    between atoms: _172  and  _174
REMARK   74  A    between atoms: _174  and  _175
REMARK   75  A    between atoms: _174  and  _177
REMARK   76  A    between atoms: _177  and  _178
REMARK   77  A    between atoms: _181  and  _183
REMARK   78  A    between atoms: _183  and  _184
REMARK   79  A    between atoms: _183  and  _186
REMARK   80  A    between atoms: _186  and  _187
REMARK   81  A    between atoms: _191  and  _192
REMARK   82  A    between atoms: _197  and  _199
REMARK   83  A    between atoms: _199  and  _200
REMARK   84  A    between atoms: _199  and  _202
REMARK   85  A    between atoms: _205  and  _207
REMARK   86  A    between atoms: _207  and  _208
REMARK   87  A    between atoms: _207  and  _210
REMARK   88  A    between atoms: _210  and  _211
REMARK   89  A    between atoms: _216  and  _218
REMARK   90  A    between atoms: _218  and  _219
REMARK   91  A    between atoms: _218  and  _221
REMARK   92  A    between atoms: _221  and  _222
REMARK   93  A    between atoms: _225  and  _227
REMARK   94  A    between atoms: _227  and  _228
REMARK   95  A    between atoms: _227  and  _230
REMARK   96  A    between atoms: _230  and  _231
REMARK   97  A    between atoms: _234  and  _236
REMARK   98  A    between atoms: _236  and  _237
REMARK   99  A    between atoms: _239  and  _241
REMARK  100  A    between atoms: _241  and  _242
REMARK  101  A    between atoms: _241  and  _244
REMARK  102  A    between atoms: _244  and  _245
REMARK  103  A    between atoms: _245  and  _246
REMARK  104  A    between atoms: _246  and  _247
REMARK  105  A    between atoms: _256  and  _258
REMARK  106  A    between atoms: _258  and  _259
REMARK  107  A    between atoms: _258  and  _261
REMARK  108  A    between atoms: _261  and  _262
REMARK  109  A    between atoms: _267  and  _269
REMARK  110  A    between atoms: _269  and  _270
REMARK  111  A    between atoms: _269  and  _272
REMARK  112  A    between atoms: _272  and  _273
REMARK  113  A    between atoms: _273  and  _274
REMARK  114  A    between atoms: _274  and  _275
REMARK  115  A    between atoms: _284  and  _286
REMARK  116  A    between atoms: _286  and  _287
REMARK  117  A    between atoms: _286  and  _289
REMARK  118  A    between atoms: _289  and  _290
REMARK  119  A    between atoms: _293  and  _295
REMARK  120  A    between atoms: _295  and  _296
REMARK  121  A    between atoms: _295  and  _298
REMARK  122  A    between atoms: _298  and  _299
REMARK  123  A    between atoms: _302  and  _304
REMARK  124  A    between atoms: _304  and  _305
REMARK  125  A    between atoms: _304  and  _307
REMARK  126  A    between atoms: _307  and  _308
REMARK  127  A    between atoms: _311  and  _313
REMARK  128  A    between atoms: _313  and  _314
REMARK  129  A    between atoms: _313  and  _316
REMARK  130  A    between atoms: _316  and  _317
REMARK  131  A    between atoms: _320  and  _322
REMARK  132  A    between atoms: _322  and  _323
REMARK  133  A    between atoms: _322  and  _325
REMARK  134  A    between atoms: _325  and  _326
REMARK  135  A    between atoms: _329  and  _331
REMARK  136  A    between atoms: _331  and  _332
REMARK  137  A    between atoms: _334  and  _336
REMARK  138  A    between atoms: _336  and  _337
REMARK  139  A    between atoms: _340  and  _342
REMARK  140  A    between atoms: _342  and  _343
REMARK  141  A    between atoms: _342  and  _345
REMARK  142  A    between atoms: _345  and  _346
REMARK  143  A    between atoms: _349  and  _351
REMARK  144  A    between atoms: _351  and  _352
REMARK  145  A    between atoms: _351  and  _354
REMARK  146  A    between atoms: _354  and  _355
REMARK  147  A    between atoms: _358  and  _360
REMARK  148  A    between atoms: _360  and  _361
REMARK  149  A    between atoms: _360  and  _363
REMARK  150  A    between atoms: _363  and  _364
REMARK  151  A    between atoms: _367  and  _369
REMARK  152  A    between atoms: _369  and  _370
REMARK  153  A    between atoms: _369  and  _372
REMARK  154  A    between atoms: _375  and  _377
REMARK  155  A    between atoms: _377  and  _378
REMARK  156  A    between atoms: _377  and  _380
REMARK  157  A    between atoms: _380  and  _381
REMARK  158  A    between atoms: _381  and  _382
REMARK  159  A    between atoms: _382  and  _383
REMARK  160  A    between atoms: _383  and  _384
REMARK  161  A    between atoms: _388  and  _390
REMARK  162  A    between atoms: _390  and  _391
REMARK  163  A    between atoms: _390  and  _393
REMARK  164  A    between atoms: _393  and  _394
REMARK  165  A    between atoms: _394  and  _395
REMARK  166  A    between atoms: _397  and  _399
REMARK  167  A    between atoms: _399  and  _400
REMARK  168  A    between atoms: _399  and  _402
REMARK  169  A    between atoms: _402  and  _403
REMARK  170  A    between atoms: _406  and  _408
REMARK  171  A    between atoms: _408  and  _409
REMARK  172  A    between atoms: _411  and  _413
REMARK  173  A    between atoms: _413  and  _414
REMARK  174  A    between atoms: _416  and  _418
REMARK  175  A    between atoms: _418  and  _419
REMARK  176  A    between atoms: _418  and  _421
REMARK  177  A    between atoms: _421  and  _422
REMARK  178  A    between atoms: _425  and  _427
REMARK  179  A    between atoms: _427  and  _428
REMARK  180  A    between atoms: _430  and  _432
REMARK  181  A    between atoms: _432  and  _433
REMARK  182  A    between atoms: _435  and  _437
REMARK  183  A    between atoms: _437  and  _438
REMARK  184  A    between atoms: _437  and  _440
REMARK  185  A    between atoms: _440  and  _441
REMARK  186  A    between atoms: _447  and  _449
REMARK  187  A    between atoms: _449  and  _450
REMARK  188  A    between atoms: _449  and  _452
REMARK  189  A    between atoms: _452  and  _453
REMARK  190  A    between atoms: _456  and  _458
REMARK  191  A    between atoms: _458  and  _459
REMARK  192  A    between atoms: _458  and  _461
REMARK  193  A    between atoms: _464  and  _466
REMARK  194  A    between atoms: _466  and  _467
REMARK  195  A    between atoms: _466  and  _469
REMARK  196  A    between atoms: _469  and  _470
REMARK  197  A    between atoms: _473  and  _475
REMARK  198  A    between atoms: _475  and  _476
REMARK  199  A    between atoms: _475  and  _478
REMARK  200  A    between atoms: _478  and  _479
REMARK  201  A    between atoms: _483  and  _484
REMARK  202  A    between atoms: _489  and  _491
REMARK  203  A    between atoms: _491  and  _492
REMARK  204  A    between atoms: _491  and  _494
REMARK  205  A    between atoms: _497  and  _499
REMARK  206  A    between atoms: _499  and  _500
REMARK  207  A    between atoms: _499  and  _502
REMARK  208  A    between atoms: _502  and  _503
REMARK  209  A    between atoms: _508  and  _510
REMARK  210  A    between atoms: _510  and  _511
REMARK  211  A    between atoms: _510  and  _513
REMARK  212  A    between atoms: _513  and  _514
REMARK  213  A    between atoms: _517  and  _519
REMARK  214  A    between atoms: _519  and  _520
REMARK  215  A    between atoms: _519  and  _522
REMARK  216  A    between atoms: _522  and  _523
REMARK  217  A    between atoms: _526  and  _528
REMARK  218  A    between atoms: _528  and  _529
REMARK  219  A    between atoms: _531  and  _533
REMARK  220  A    between atoms: _533  and  _534
REMARK  221  A    between atoms: _533  and  _536
REMARK  222  A    between atoms: _536  and  _537
REMARK  223  A    between atoms: _537  and  _538
REMARK  224  A    between atoms: _538  and  _539
REMARK                            x       y       z     vdW  Elec       q    Type
REMARK                         _______ _______ _______ _____ _____    ______ ____
ROOT
ATOM      1  CA  VAL A   1      17.738  -9.477  11.492  0.00  0.00    +0.133 C 
ENDROOT
BRANCH   1   2
ATOM      2  CB  VAL A   1      16.984  -8.605  12.558  0.00  0.00    +0.023 C 
ATOM      3  CG2 VAL A   1      16.370  -9.510  13.672  0.00  0.00    +0.002 C 
ATOM      4  CG1 VAL A   1      15.856  -7.816  11.892  0.00  0.00    +0.002 C 
ENDBRANCH   1   2
BRANCH   1   5
ATOM      5  N   VAL A   1      16.845 -10.485  10.916  0.00  0.00    -0.239 NA
ATOM      6  H   VAL A   1      16.636 -11.352  11.450  0.00  0.00    +0.142 HD
ENDBRANCH   1   5
BRANCH   1   7
ATOM      7  C   VAL A   1      18.917 -10.197  12.162  0.00  0.00    +0.224 C 
ATOM      8  O   VAL A   1      18.899 -11.440  12.284  0.00  0.00    -0.287 OA
ENDBRANCH   1   7
TORSDOF 3
REMARK  Name = ../refined-set-2016/1hih/1hih_pocket.pdb
REMARK  224 active torsions:
REMARK  status: ('A' for Active; 'I' for Inactive)
REMARK    1  A    between atoms: _1  and  _3
REMARK    2  A    between atoms: _3  and  _4
REMARK    3  A    between atoms: _3  and  _6
REMARK    4  A    between atoms: _6  and  _7
REMARK    5  A    between atoms: _7  and  _8
REMARK    6  A    between atoms: _8  and  _9
REMARK    7  A    between atoms: _18  and  _20
REMARK    8  A    between atoms: _20  and  _21
REMARK    9  A    between atoms: _20  and  _23
REMARK   10  A    between atoms: _23  and  _24
REMARK   11  A    between atoms: _27  and  _29
REMARK   12  A    between atoms: _29  and  _30
REMARK   13  A    between atoms: _29  and  _32
REMARK   14  A    between atoms: _32  and  _33
REMARK   15  A    between atoms: _36  and  _38
REMARK   16  A    between atoms: _38  and  _39
REMARK   17  A    between atoms: _38  and  _41
REMARK   18  A    between atoms: _41  and  _42
REMARK   19  A    between atoms: _45  and  _47
REMARK   20  A    between atoms: _47  and  _48
REMARK   21  A    between atoms: _47  and  _50
REMARK   22  A    between atoms: _50  and  _51
REMARK   23  A    between atoms: _54  and  _56
REMARK   24  A    between atoms: _56  and  _57
REMARK   25  A    between atoms: _59  and  _61
REMARK   26  A    between atoms: _61  and  _62
REMARK   27  A    between atoms: _65  and  _67
REMARK   28  A    between atoms: _67  and  _68
REMARK   29  A    between atoms: _67  and  _70
REMARK   30  A    between atoms: _70  and  _71
REMARK   31  A    between atoms: _74  and  _76
REMARK   32  A    between atoms: _76  and  _77
REMARK   33  A    between atoms: _76  and  _79
REMARK   34  A    between atoms: _79  and  _80
REMARK   35  A    between atoms: _83  and  _85
REMARK   36  A    between atoms: _85  and  _86
REMARK   37  A    between atoms: _85  and  _88
REMARK   38  A    between atoms: _88  and  _89
REMARK   39  A    between atoms: _92  and  _94
REMARK   40  A    between atoms: _94  and  _95
REMARK   41  A    between atoms: _94  and  _97
REMARK   42  A    between atoms: _100  and  _102
REMARK   43  A    between atoms: _102  and  _103
REMARK   44  A    between atoms: _102  and  _105
REMARK   45  A    between atoms: _105  and  _106
REMARK   46  A    between atoms: _106  and  _107
REMARK   47  A    between atoms: _107  and  _108
REMARK   48  A    between atoms: _108  and  _109
REMARK   49  A    between atoms: _113  and  _115
REMARK   50  A    between atoms: _115  and  _116
REMARK   51  A    between atoms: _115  and  _118
REMARK   52  A    between atoms: _118  and  _119
REMARK   53  A    between atoms: _122  and  _124
REMARK   54  A    between atoms: _124  and  _125
REMARK   55  A    between atoms: _127  and  _129
REMARK   56  A    between atoms: _129  and  _130
REMARK   57  A    between atoms: _132  and  _134
REMARK   58  A    between atoms: _134  and  _135
REMARK   59  A    between atoms: _134  and  _137
REMARK   60  A    between atoms: _137  and  _138
REMARK   61  A    between atoms: _141  and  _143
REMARK   62  A    between atoms: _143  and  _144
REMARK   63  A    between atoms: _146  and  _148
REMARK   64  A    between atoms: _148  and  _149
REMARK   65  A    between atoms: _151  and  _153
REMARK   66  A    between atoms: _153  and  _154
REMARK   67  A    between atoms: _153  and  _156
REMARK   68  A    between atoms: _156  and  _157
REMARK   69  A    between atoms: _163  and  _165
REMARK   70  A    between atoms: _165  and  _166
REMARK   71  A    between atoms: _165  and  _168
REMARK   72  A    between atoms: _168  and  _169
REMARK   73  A    between atoms: _172  and  _174
REMARK   74  A    between atoms: _174  and  _175
REMARK   75  A    between atoms: _174  and  _177
REMARK   76  A    between atoms: _177  and  _178
REMARK   77  A    between atoms: _181  and  _183
REMARK   78  A    between atoms: _183  and  _184
REMARK   79  A    between atoms: _183  and  _186
REMARK   80  A    between atoms: _186  and  _187
REMARK   81  A    between atoms: _191  and  _192
REMARK   82  A    between atoms: _197  and  _199
REMARK   83  A    between atoms: _199  and  _200
REMARK   84  A    between atoms: _199  and  _202
REMARK   85  A    between atoms: _205  and  _207
REMARK   86  A    between atoms: _207  and  _208
REMARK   87  A    between atoms: _207  and  _210
REMARK   88  A    between atoms: _210  and  _211
REMARK   89  A    between atoms: _216  and  _218
REMARK   90  A    between atoms: _218  and  _219
REMARK   91  A    between atoms: _218  and  _221
REMARK   92  A    between atoms: _221  and  _222
REMARK   93  A    between atoms: _225  and  _227
REMARK   94  A    between atoms: _227  and  _228
REMARK   95  A    between atoms: _227  and  _230
REMARK   96  A    between atoms: _230  and  _231
REMARK   97  A    between atoms: _234  and  _236
REMARK   98  A    between atoms: _236  and  _237
REMARK   99  A    between atoms: _239  and  _241
REMARK  100  A    between atoms: _241  and  _242
REMARK  101  A    between atoms: _241  and  _244
REMARK  102  A    between atoms: _244  and  _245
REMARK  103  A    between atoms: _245  and  _246
REMARK  104  A    between atoms: _246  and  _247
REMARK  105  A    between atoms: _256  and  _258
REMARK  106  A    between atoms: _258  and  _259
REMARK  107  A    between atoms: _258  and  _261
REMARK  108  A    between atoms: _261  and  _262
REMARK  109  A    between atoms: _267  and  _269
REMARK  110  A    between atoms: _269  and  _270
REMARK  111  A    between atoms: _269  and  _272
REMARK  112  A    between atoms: _272  and  _273
REMARK  113  A    between atoms: _273  and  _274
REMARK  114  A    between atoms: _274  and  _275
REMARK  115  A    between atoms: _284  and  _286
REMARK  116  A    between atoms: _286  and  _287
REMARK  117  A    between atoms: _286  and  _289
REMARK  118  A    between atoms: _289  and  _290
REMARK  119  A    between atoms: _293  and  _295
REMARK  120  A    between atoms: _295  and  _296
REMARK  121  A    between atoms: _295  and  _298
REMARK  122  A    between atoms: _298  and  _299
REMARK  123  A    between atoms: _302  and  _304
REMARK  124  A    between atoms: _304  and  _305
REMARK  125  A    between atoms: _304  and  _307
REMARK  126  A    between atoms: _307  and  _308
REMARK  127  A    between atoms: _311  and  _313
REMARK  128  A    between atoms: _313  and  _314
REMARK  129  A    between atoms: _313  and  _316
REMARK  130  A    between atoms: _316  and  _317
REMARK  131  A    between atoms: _320  and  _322
REMARK  132  A    between atoms: _322  and  _323
REMARK  133  A    between atoms: _322  and  _325
REMARK  134  A    between atoms: _325  and  _326
REMARK  135  A    between atoms: _329  and  _331
REMARK  136  A    between atoms: _331  and  _332
REMARK  137  A    between atoms: _334  and  _336
REMARK  138  A    between atoms: _336  and  _337
REMARK  139  A    between atoms: _340  and  _342
REMARK  140  A    between atoms: _342  and  _343
REMARK  141  A    between atoms: _342  and  _345
REMARK  142  A    between atoms: _345  and  _346
REMARK  143  A    between atoms: _349  and  _351
REMARK  144  A    between atoms: _351  and  _352
REMARK  145  A    between atoms: _351  and  _354
REMARK  146  A    between atoms: _354  and  _355
REMARK  147  A    between atoms: _358  and  _360
REMARK  148  A    between atoms: _360  and  _361
REMARK  149  A    between atoms: _360  and  _363
REMARK  150  A    between atoms: _363  and  _364
REMARK  151  A    between atoms: _367  and  _369
REMARK  152  A    between atoms: _369  and  _370
REMARK  153  A    between atoms: _369  and  _372
REMARK  154  A    between atoms: _375  and  _377
REMARK  155  A    between atoms: _377  and  _378
REMARK  156  A    between atoms: _377  and  _380
REMARK  157  A    between atoms: _380  and  _381
REMARK  158  A    between atoms: _381  and  _382
REMARK  159  A    between atoms: _382  and  _383
REMARK  160  A    between atoms: _383  and  _384
REMARK  161  A    between atoms: _388  and  _390
REMARK  162  A    between atoms: _390  and  _391
REMARK  163  A    between atoms: _390  and  _393
REMARK  164  A    between atoms: _393  and  _394
REMARK  165  A    between atoms: _394  and  _395
REMARK  166  A    between atoms: _397  and  _399
REMARK  167  A    between atoms: _399  and  _400
REMARK  168  A    between atoms: _399  and  _402
REMARK  169  A    between atoms: _402  and  _403
REMARK  170  A    between atoms: _406  and  _408
REMARK  171  A    between atoms: _408  and  _409
REMARK  172  A    between atoms: _411  and  _413
REMARK  173  A    between atoms: _413  and  _414
REMARK  174  A    between atoms: _416  and  _418
REMARK  175  A    between atoms: _418  and  _419
REMARK  176  A    between atoms: _418  and  _421
REMARK  177  A    between atoms: _421  and  _422
REMARK  178  A    between atoms: _425  and  _427
REMARK  179  A    between atoms: _427  and  _428
REMARK  180  A    between atoms: _430  and  _432
REMARK  181  A    between atoms: _432  and  _433
REMARK  182  A    between atoms: _435  and  _437
REMARK  183  A    between atoms: _437  and  _438
REMARK  184  A    between atoms: _437  and  _440
REMARK  185  A    between atoms: _440  and  _441
REMARK  186  A    between atoms: _447  and  _449
REMARK  187  A    between atoms: _449  and  _450
REMARK  188  A    between atoms: _449  and  _452
REMARK  189  A    between atoms: _452  and  _453
REMARK  190  A    between atoms: _456  and  _458
REMARK  191  A    between atoms: _458  and  _459
REMARK  192  A    between atoms: _458  and  _461
REMARK  193  A    between atoms: _464  and  _466
REMARK  194  A    between atoms: _466  and  _467
REMARK  195  A    between atoms: _466  and  _469
REMARK  196  A    between atoms: _469  and  _470
REMARK  197  A    between atoms: _473  and  _475
REMARK  198  A    between atoms: _475  and  _476
REMARK  199  A    between atoms: _475  and  _478
REMARK  200  A    between atoms: _478  and  _479
REMARK  201  A    between atoms: _483  and  _484
REMARK  202  A    between atoms: _489  and  _491
REMARK  203  A    between atoms: _491  and  _492
REMARK  204  A    between atoms: _491  and  _494
REMARK  205  A    between atoms: _497  and  _499
REMARK  206  A    between atoms: _499  and  _500
REMARK  207  A    between atoms: _499  and  _502
REMARK  208  A    between atoms: _502  and  _503
REMARK  209  A    between atoms: _508  and  _510
REMARK  210  A    between atoms: _510  and  _511
REMARK  211  A    between atoms: _510  and  _513
REMARK  212  A    between atoms: _513  and  _514
REMARK  213  A    between atoms: _517  and  _519
REMARK  214  A    between atoms: _519  and  _520
REMARK  215  A    between atoms: _519  and  _522
REMARK  216  A    between atoms: _522  and  _523
REMARK  217  A    between atoms: _526  and  _528
REMARK  218  A    between atoms: _528  and  _529
REMARK  219  A    between atoms: _531  and  _533
REMARK  220  A    between atoms: _533  and  _534
REMARK  221  A    between atoms: _533  and  _536
REMARK  222  A    between atoms: _536  and  _537
REMARK  223  A    between atoms: _537  and  _538
REMARK  224  A    between atoms: _538  and  _539
REMARK                            x       y       z     vdW  Elec       q    Type
REMARK                         _______ _______ _______ _____ _____    ______ ____
ROOT
ATOM      1  CA  LEU A   1      18.590  -6.317  16.225  0.00  0.00    +0.133 C 
ENDROOT
BRANCH   1   2
ATOM      2  N   LEU A   1      18.726  -5.530  17.442  0.00  0.00    -0.239 NA
ATOM      3  H   LEU A   1      18.010  -4.805  17.651  0.00  0.00    +0.142 HD
ENDBRANCH   1   2
BRANCH   1   4
ATOM      4  C   LEU A   1      18.915  -5.343  15.103  0.00  0.00    +0.224 C 
ATOM      5  O   LEU A   1      18.472  -4.192  15.128  0.00  0.00    -0.287 OA
ENDBRANCH   1   4
BRANCH   1   6
ATOM      6  CB  LEU A   1      17.145  -6.806  16.067  0.00  0.00    +0.025 C 
BRANCH   6   7
ATOM      7  CG  LEU A   1      16.501  -7.422  17.294  0.00  0.00    +0.002 C 
ATOM      8  CD2 LEU A   1      17.305  -8.631  17.735  0.00  0.00    +0.000 C 
ATOM      9  CD1 LEU A   1      15.072  -7.771  16.982  0.00  0.00    +0.000 C 
ENDBRANCH   6   7
ENDBRANCH   1   6
TORSDOF 4
REMARK  Name = ../refined-set-2016/1hih/1hih_pocket.pdb
REMARK  224 active torsions:
REMARK  status: ('A' for Active; 'I' for Inactive)
REMARK    1  A    between atoms: _1  and  _3
REMARK    2  A    between atoms: _3  and  _4
REMARK    3  A    between atoms: _3  and  _6
REMARK    4  A    between atoms: _6  and  _7
REMARK    5  A    between atoms: _7  and  _8
REMARK    6  A    between atoms: _8  and  _9
REMARK    7  A    between atoms: _18  and  _20
REMARK    8  A    between atoms: _20  and  _21
REMARK    9  A    between atoms: _20  and  _23
REMARK   10  A    between atoms: _23  and  _24
REMARK   11  A    between atoms: _27  and  _29
REMARK   12  A    between atoms: _29  and  _30
REMARK   13  A    between atoms: _29  and  _32
REMARK   14  A    between atoms: _32  and  _33
REMARK   15  A    between atoms: _36  and  _38
REMARK   16  A    between atoms: _38  and  _39
REMARK   17  A    between atoms: _38  and  _41
REMARK   18  A    between atoms: _41  and  _42
REMARK   19  A    between atoms: _45  and  _47
REMARK   20  A    between atoms: _47  and  _48
REMARK   21  A    between atoms: _47  and  _50
REMARK   22  A    between atoms: _50  and  _51
REMARK   23  A    between atoms: _54  and  _56
REMARK   24  A    between atoms: _56  and  _57
REMARK   25  A    between atoms: _59  and  _61
REMARK   26  A    between atoms: _61  and  _62
REMARK   27  A    between atoms: _65  and  _67
REMARK   28  A    between atoms: _67  and  _68
REMARK   29  A    between atoms: _67  and  _70
REMARK   30  A    between atoms: _70  and  _71
REMARK   31  A    between atoms: _74  and  _76
REMARK   32  A    between atoms: _76  and  _77
REMARK   33  A    between atoms: _76  and  _79
REMARK   34  A    between atoms: _79  and  _80
REMARK   35  A    between atoms: _83  and  _85
REMARK   36  A    between atoms: _85  and  _86
REMARK   37  A    between atoms: _85  and  _88
REMARK   38  A    between atoms: _88  and  _89
REMARK   39  A    between atoms: _92  and  _94
REMARK   40  A    between atoms: _94  and  _95
REMARK   41  A    between atoms: _94  and  _97
REMARK   42  A    between atoms: _100  and  _102
REMARK   43  A    between atoms: _102  and  _103
REMARK   44  A    between atoms: _102  and  _105
REMARK   45  A    between atoms: _105  and  _106
REMARK   46  A    between atoms: _106  and  _107
REMARK   47  A    between atoms: _107  and  _108
REMARK   48  A    between atoms: _108  and  _109
REMARK   49  A    between atoms: _113  and  _115
REMARK   50  A    between atoms: _115  and  _116
REMARK   51  A    between atoms: _115  and  _118
REMARK   52  A    between atoms: _118  and  _119
REMARK   53  A    between atoms: _122  and  _124
REMARK   54  A    between atoms: _124  and  _125
REMARK   55  A    between atoms: _127  and  _129
REMARK   56  A    between atoms: _129  and  _130
REMARK   57  A    between atoms: _132  and  _134
REMARK   58  A    between atoms: _134  and  _135
REMARK   59  A    between atoms: _134  and  _137
REMARK   60  A    between atoms: _137  and  _138
REMARK   61  A    between atoms: _141  and  _143
REMARK   62  A    between atoms: _143  and  _144
REMARK   63  A    between atoms: _146  and  _148
REMARK   64  A    between atoms: _148  and  _149
REMARK   65  A    between atoms: _151  and  _153
REMARK   66  A    between atoms: _153  and  _154
REMARK   67  A    between atoms: _153  and  _156
REMARK   68  A    between atoms: _156  and  _157
REMARK   69  A    between atoms: _163  and  _165
REMARK   70  A    between atoms: _165  and  _166
REMARK   71  A    between atoms: _165  and  _168
REMARK   72  A    between atoms: _168  and  _169
REMARK   73  A    between atoms: _172  and  _174
REMARK   74  A    between atoms: _174  and  _175
REMARK   75  A    between atoms: _174  and  _177
REMARK   76  A    between atoms: _177  and  _178
REMARK   77  A    between atoms: _181  and  _183
REMARK   78  A    between atoms: _183  and  _184
REMARK   79  A    between atoms: _183  and  _186
REMARK   80  A    between atoms: _186  and  _187
REMARK   81  A    between atoms: _191  and  _192
REMARK   82  A    between atoms: _197  and  _199
REMARK   83  A    between atoms: _199  and  _200
REMARK   84  A    between atoms: _199  and  _202
REMARK   85  A    between atoms: _205  and  _207
REMARK   86  A    between atoms: _207  and  _208
REMARK   87  A    between atoms: _207  and  _210
REMARK   88  A    between atoms: _210  and  _211
REMARK   89  A    between atoms: _216  and  _218
REMARK   90  A    between atoms: _218  and  _219
REMARK   91  A    between atoms: _218  and  _221
REMARK   92  A    between atoms: _221  and  _222
REMARK   93  A    between atoms: _225  and  _227
REMARK   94  A    between atoms: _227  and  _228
REMARK   95  A    between atoms: _227  and  _230
REMARK   96  A    between atoms: _230  and  _231
REMARK   97  A    between atoms: _234  and  _236
REMARK   98  A    between atoms: _236  and  _237
REMARK   99  A    between atoms: _239  and  _241
REMARK  100  A    between atoms: _241  and  _242
REMARK  101  A    between atoms: _241  and  _244
REMARK  102  A    between atoms: _244  and  _245
REMARK  103  A    between atoms: _245  and  _246
REMARK  104  A    between atoms: _246  and  _247
REMARK  105  A    between atoms: _256  and  _258
REMARK  106  A    between atoms: _258  and  _259
REMARK  107  A    between atoms: _258  and  _261
REMARK  108  A    between atoms: _261  and  _262
REMARK  109  A    between atoms: _267  and  _269
REMARK  110  A    between atoms: _269  and  _270
REMARK  111  A    between atoms: _269  and  _272
REMARK  112  A    between atoms: _272  and  _273
REMARK  113  A    between atoms: _273  and  _274
REMARK  114  A    between atoms: _274  and  _275
REMARK  115  A    between atoms: _284  and  _286
REMARK  116  A    between atoms: _286  and  _287
REMARK  117  A    between atoms: _286  and  _289
REMARK  118  A    between atoms: _289  and  _290
REMARK  119  A    between atoms: _293  and  _295
REMARK  120  A    between atoms: _295  and  _296
REMARK  121  A    between atoms: _295  and  _298
REMARK  122  A    between atoms: _298  and  _299
REMARK  123  A    between atoms: _302  and  _304
REMARK  124  A    between atoms: _304  and  _305
REMARK  125  A    between atoms: _304  and  _307
REMARK  126  A    between atoms: _307  and  _308
REMARK  127  A    between atoms: _311  and  _313
REMARK  128  A    between atoms: _313  and  _314
REMARK  129  A    between atoms: _313  and  _316
REMARK  130  A    between atoms: _316  and  _317
REMARK  131  A    between atoms: _320  and  _322
REMARK  132  A    between atoms: _322  and  _323
REMARK  133  A    between atoms: _322  and  _325
REMARK  134  A    between atoms: _325  and  _326
REMARK  135  A    between atoms: _329  and  _331
REMARK  136  A    between atoms: _331  and  _332
REMARK  137  A    between atoms: _334  and  _336
REMARK  138  A    between atoms: _336  and  _337
REMARK  139  A    between atoms: _340  and  _342
REMARK  140  A    between atoms: _342  and  _343
REMARK  141  A    between atoms: _342  and  _345
REMARK  142  A    between atoms: _345  and  _346
REMARK  143  A    between atoms: _349  and  _351
REMARK  144  A    between atoms: _351  and  _352
REMARK  145  A    between atoms: _351  and  _354
REMARK  146  A    between atoms: _354  and  _355
REMARK  147  A    between atoms: _358  and  _360
REMARK  148  A    between atoms: _360  and  _361
REMARK  149  A    between atoms: _360  and  _363
REMARK  150  A    between atoms: _363  and  _364
REMARK  151  A    between atoms: _367  and  _369
REMARK  152  A    between atoms: _369  and  _370
REMARK  153  A    between atoms: _369  and  _372
REMARK  154  A    between atoms: _375  and  _377
REMARK  155  A    between atoms: _377  and  _378
REMARK  156  A    between atoms: _377  and  _380
REMARK  157  A    between atoms: _380  and  _381
REMARK  158  A    between atoms: _381  and  _382
REMARK  159  A    between atoms: _382  and  _383
REMARK  160  A    between atoms: _383  and  _384
REMARK  161  A    between atoms: _388  and  _390
REMARK  162  A    between atoms: _390  and  _391
REMARK  163  A    between atoms: _390  and  _393
REMARK  164  A    between atoms: _393  and  _394
REMARK  165  A    between atoms: _394  and  _395
REMARK  166  A    between atoms: _397  and  _399
REMARK  167  A    between atoms: _399  and  _400
REMARK  168  A    between atoms: _399  and  _402
REMARK  169  A    between atoms: _402  and  _403
REMARK  170  A    between atoms: _406  and  _408
REMARK  171  A    between atoms: _408  and  _409
REMARK  172  A    between atoms: _411  and  _413
REMARK  173  A    between atoms: _413  and  _414
REMARK  174  A    between atoms: _416  and  _418
REMARK  175  A    between atoms: _418  and  _419
REMARK  176  A    between atoms: _418  and  _421
REMARK  177  A    between atoms: _421  and  _422
REMARK  178  A    between atoms: _425  and  _427
REMARK  179  A    between atoms: _427  and  _428
REMARK  180  A    between atoms: _430  and  _432
REMARK  181  A    between atoms: _432  and  _433
REMARK  182  A    between atoms: _435  and  _437
REMARK  183  A    between atoms: _437  and  _438
REMARK  184  A    between atoms: _437  and  _440
REMARK  185  A    between atoms: _440  and  _441
REMARK  186  A    between atoms: _447  and  _449
REMARK  187  A    between atoms: _449  and  _450
REMARK  188  A    between atoms: _449  and  _452
REMARK  189  A    between atoms: _452  and  _453
REMARK  190  A    between atoms: _456  and  _458
REMARK  191  A    between atoms: _458  and  _459
REMARK  192  A    between atoms: _458  and  _461
REMARK  193  A    between atoms: _464  and  _466
REMARK  194  A    between atoms: _466  and  _467
REMARK  195  A    between atoms: _466  and  _469
REMARK  196  A    between atoms: _469  and  _470
REMARK  197  A    between atoms: _473  and  _475
REMARK  198  A    between atoms: _475  and  _476
REMARK  199  A    between atoms: _475  and  _478
REMARK  200  A    between atoms: _478  and  _479
REMARK  201  A    between atoms: _483  and  _484
REMARK  202  A    between atoms: _489  and  _491
REMARK  203  A    between atoms: _491  and  _492
REMARK  204  A    between atoms: _491  and  _494
REMARK  205  A    between atoms: _497  and  _499
REMARK  206  A    between atoms: _499  and  _500
REMARK  207  A    between atoms: _499  and  _502
REMARK  208  A    between atoms: _502  and  _503
REMARK  209  A    between atoms: _508  and  _510
REMARK  210  A    between atoms: _510  and  _511
REMARK  211  A    between atoms: _510  and  _513
REMARK  212  A    between atoms: _513  and  _514
REMARK  213  A    between atoms: _517  and  _519
REMARK  214  A    between atoms: _519  and  _520
REMARK  215  A    between atoms: _519  and  _522
REMARK  216  A    between atoms: _522  and  _523
REMARK  217  A    between atoms: _526  and  _528
REMARK  218  A    between atoms: _528  and  _529
REMARK  219  A    between atoms: _531  and  _533
REMARK  220  A    between atoms: _533  and  _534
REMARK  221  A    between atoms: _533  and  _536
REMARK  222  A    between atoms: _536  and  _537
REMARK  223  A    between atoms: _537  and  _538
REMARK  224  A    between atoms: _538  and  _539
REMARK                            x       y       z     vdW  Elec       q    Type
REMARK                         _______ _______ _______ _____ _____    ______ ____
ROOT
ATOM      1  CA  ILE A   5      13.426   1.889  16.477  0.00  0.00    +0.149 C 
ENDROOT
BRANCH   1   3
ATOM      2  C   ASN A   4      14.816   3.141  14.947  0.00  0.00    +0.241 C 
ATOM      3  N   ILE A   5      14.547   1.998  15.543  0.00  0.00    -0.297 N 
ATOM      4  H   ILE A   5      15.137   1.164  15.348  0.00  0.00    +0.150 HD
ATOM      5  O   ASN A   4      14.089   4.122  15.083  0.00  0.00    -0.273 OA
BRANCH   2   6
ATOM      6  CA  ASN A   4      16.007   3.162  13.983  0.00  0.00    +0.158 C 
BRANCH   6   8
ATOM      7  C   VAL A   3      14.713   3.240  11.936  0.00  0.00    +0.241 C 
ATOM      8  N   ASN A   4      15.596   3.825  12.743  0.00  0.00    -0.297 N 
ATOM      9  H   ASN A   4      15.994   4.753  12.493  0.00  0.00    +0.150 HD
ATOM     10  O   VAL A   3      14.331   2.086  12.113  0.00  0.00    -0.273 OA
BRANCH   7  11
ATOM     11  CA  VAL A   3      14.286   4.012  10.689  0.00  0.00    +0.149 C 
BRANCH  11  13
ATOM     12  C   PRO A   2      14.409   3.524   8.302  0.00  0.00    +0.241 C 
ATOM     13  N   VAL A   3      14.070   3.140   9.538  0.00  0.00    -0.297 N 
ATOM     14  H   VAL A   3      13.644   2.202   9.682  0.00  0.00    +0.150 HD
ATOM     15  O   PRO A   2      14.966   4.593   8.062  0.00  0.00    -0.273 OA
BRANCH  12  22
ATOM     16  C   THR A   1      14.867   0.444   8.051  0.00  0.00    +0.244 C 
ATOM     17  O   THR A   1      16.021   0.827   7.978  0.00  0.00    -0.273 OA
ATOM     18  N   PRO A   2      13.844   1.205   7.656  0.00  0.00    -0.272 N 
ATOM     19  CD  PRO A   2      12.413   0.854   7.543  0.00  0.00    +0.094 C 
ATOM     20  CG  PRO A   2      11.757   2.221   7.356  0.00  0.00    +0.024 C 
ATOM     21  CB  PRO A   2      12.759   2.939   6.513  0.00  0.00    +0.031 C 
ATOM     22  CA  PRO A   2      14.095   2.562   7.161  0.00  0.00    +0.152 C 
BRANCH  16  23
ATOM     23  CA  THR A   1      14.554  -0.942   8.556  0.00  0.00    +0.172 C 
BRANCH  23  24
ATOM     24  N   THR A   1      15.634  -1.843   8.163  0.00  0.00    -0.236 NA
ATOM     25  H   THR A   1      16.341  -2.119   8.874  0.00  0.00    +0.142 HD
ENDBRANCH  23  24
BRANCH  23  26
ATOM     26  CB  THR A   1      14.353  -0.889  10.119  0.00  0.00    +0.135 C 
ATOM     27  CG2 THR A   1      15.667  -0.636  10.868  0.00  0.00    +0.034 C 
BRANCH  26  28
ATOM     28  OG1 THR A   1      13.436   0.163  10.432  0.00  0.00    -0.383 OA
ATOM     29  HG1 THR A   1      13.304   0.203  11.412  0.00  0.00    +0.210 HD
ENDBRANCH  26  28
ENDBRANCH  23  26
ENDBRANCH  16  23
ENDBRANCH  12  22
ENDBRANCH  11  13
BRANCH  11  30
ATOM     30  CB  VAL A   3      12.980   4.820  10.988  0.00  0.00    +0.027 C 
ATOM     31  CG2 VAL A   3      13.211   5.833  12.067  0.00  0.00    +0.002 C 
ATOM     32  CG1 VAL A   3      11.887   3.911  11.387  0.00  0.00    +0.002 C 
ENDBRANCH  11  30
ENDBRANCH   7  11
ENDBRANCH   6   8
BRANCH   6  33
ATOM     33  CB  ASN A   4      17.193   3.878  14.604  0.00  0.00    +0.114 C 
BRANCH  33  34
ATOM     34  CG  ASN A   4      18.431   3.793  13.729  0.00  0.00    +0.222 C 
ATOM     35  OD1 ASN A   4      18.939   2.703  13.434  0.00  0.00    -0.275 OA
ATOM     36  ND2 ASN A   4      18.900   4.934  13.277  0.00  0.00    -0.329 N 
ATOM     37 HD21 ASN A   4      18.444   5.828  13.549  0.00  0.00    +0.145 HD
ATOM     38 HD22 ASN A   4      19.728   4.943  12.647  0.00  0.00    +0.145 HD
ENDBRANCH  33  34
ENDBRANCH   6  33
ENDBRANCH   2   6
ENDBRANCH   1   3
BRANCH   1  39
ATOM     39  C   ILE A   5      13.941   1.472  17.857  0.00  0.00    +0.241 C 
ATOM     40  N   ILE A   6      13.696   2.312  18.862  0.00  0.00    -0.297 N 
ATOM     41  H   ILE A   6      13.204   3.209  18.673  0.00  0.00    +0.150 HD
ATOM     42  O   ILE A   5      14.584   0.414  17.999  0.00  0.00    -0.273 OA
BRANCH  40  43
ATOM     43  CA  ILE A   6      14.107   1.991  20.219  0.00  0.00    +0.149 C 
BRANCH  43  44
ATOM     44  C   ILE A   6      12.890   1.356  20.866  0.00  0.00    +0.241 C 
ATOM     45  N   GLY A   7      13.007   0.081  21.211  0.00  0.00    -0.295 N 
ATOM     46  H   GLY A   7      13.900  -0.419  21.027  0.00  0.00    +0.150 HD
ATOM     47  O   ILE A   6      11.837   1.980  20.936  0.00  0.00    -0.273 OA
BRANCH  45  48
ATOM     48  CA  GLY A   7      11.907  -0.629  21.843  0.00  0.00    +0.176 C 
BRANCH  48  49
ATOM     49  C   GLY A   7      11.879  -0.640  23.374  0.00  0.00    +0.243 C 
ATOM     50  O   GLY A   7      12.762  -0.069  24.048  0.00  0.00    -0.273 OA
ATOM     51  N   ARG A   8      10.930  -1.396  23.927  0.00  0.00    -0.298 N 
ATOM     52  H   ARG A   8      10.305  -1.959  23.315  0.00  0.00    +0.150 HD
BRANCH  51  53
ATOM     53  CA  ARG A   8      10.752  -1.448  25.368  0.00  0.00    +0.137 C 
BRANCH  53  54
ATOM     54  C   ARG A   8      11.950  -1.953  26.182  0.00  0.00    +0.227 C 
ATOM     55  O   ARG A   8      12.174  -1.471  27.306  0.00  0.00    -0.286 OA
ENDBRANCH  53  54
BRANCH  53  56
ATOM     56  CB  ARG A   8       9.495  -2.209  25.739  0.00  0.00    +0.031 C 
BRANCH  56  57
ATOM     57  CG  ARG A   8       8.181  -1.584  25.258  0.00  0.00    +0.045 C 
BRANCH  57  58
ATOM     58  CD  ARG A   8       7.011  -2.343  25.894  0.00  0.00    +0.174 C 
BRANCH  58  59
ATOM     59  NE  ARG A   8       6.895  -3.712  25.387  0.00  0.00    -0.265 N 
ATOM     60  CZ  ARG A   8       7.303  -4.804  26.035  0.00  0.00    +0.342 C 
ATOM     61  NH2 ARG A   8       7.852  -4.709  27.240  0.00  0.00    -0.292 N 
ATOM     62 HH21 ARG A   8       8.167  -5.567  27.737  0.00  0.00    +0.255 HD
ATOM     63 HH22 ARG A   8       7.967  -3.777  27.687  0.00  0.00    +0.255 HD
ATOM     64  NH1 ARG A   8       7.209  -5.993  25.455  0.00  0.00    -0.292 N 
ATOM     65 HH11 ARG A   8       7.527  -6.845  25.960  0.00  0.00    +0.255 HD
ATOM     66 HH12 ARG A   8       6.817  -6.074  24.495  0.00  0.00    +0.255 HD
ATOM     67  HE  ARG A   8       6.462  -3.843  24.451  0.00  0.00    +0.259 HD
ENDBRANCH  58  59
ENDBRANCH  57  58
ENDBRANCH  56  57
ENDBRANCH  53  56
ENDBRANCH  51  53
ENDBRANCH  48  49
ENDBRANCH  45  48
ENDBRANCH  43  44
BRANCH  43  68
ATOM     68  CB  ILE A   6      14.493   3.237  21.023  0.00  0.00    +0.027 C 
ATOM     69  CG2 ILE A   6      14.853   2.837  22.426  0.00  0.00    +0.002 C 
BRANCH  68  70
ATOM     70  CG1 ILE A   6      15.643   3.988  20.330  0.00  0.00    +0.002 C 
ATOM     71  CD1 ILE A   6      16.869   3.154  19.971  0.00  0.00    +0.000 C 
ENDBRANCH  68  70
ENDBRANCH  43  68
ENDBRANCH  40  43
ENDBRANCH   1  39
BRANCH   1  72
ATOM     72  CB  ILE A   5      12.418   0.824  15.996  0.00  0.00    +0.027 C 
ATOM     73  CG2 ILE A   5      11.252   0.732  16.959  0.00  0.00    +0.002 C 
BRANCH  72  74
ATOM     74  CG1 ILE A   5      11.905   1.193  14.592  0.00  0.00    +0.002 C 
ATOM     75  CD1 ILE A   5      11.236   0.068  13.868  0.00  0.00    +0.000 C 
ENDBRANCH  72  74
ENDBRANCH   1  72
TORSDOF 28
REMARK  Name = ../refined-set-2016/1hih/1hih_pocket.pdb
REMARK  224 active torsions:
REMARK  status: ('A' for Active; 'I' for Inactive)
REMARK    1  A    between atoms: _1  and  _3
REMARK    2  A    between atoms: _3  and  _4
REMARK    3  A    between atoms: _3  and  _6
REMARK    4  A    between atoms: _6  and  _7
REMARK    5  A    between atoms: _7  and  _8
REMARK    6  A    between atoms: _8  and  _9
REMARK    7  A    between atoms: _18  and  _20
REMARK    8  A    between atoms: _20  and  _21
REMARK    9  A    between atoms: _20  and  _23
REMARK   10  A    between atoms: _23  and  _24
REMARK   11  A    between atoms: _27  and  _29
REMARK   12  A    between atoms: _29  and  _30
REMARK   13  A    between atoms: _29  and  _32
REMARK   14  A    between atoms: _32  and  _33
REMARK   15  A    between atoms: _36  and  _38
REMARK   16  A    between atoms: _38  and  _39
REMARK   17  A    between atoms: _38  and  _41
REMARK   18  A    between atoms: _41  and  _42
REMARK   19  A    between atoms: _45  and  _47
REMARK   20  A    between atoms: _47  and  _48
REMARK   21  A    between atoms: _47  and  _50
REMARK   22  A    between atoms: _50  and  _51
REMARK   23  A    between atoms: _54  and  _56
REMARK   24  A    between atoms: _56  and  _57
REMARK   25  A    between atoms: _59  and  _61
REMARK   26  A    between atoms: _61  and  _62
REMARK   27  A    between atoms: _65  and  _67
REMARK   28  A    between atoms: _67  and  _68
REMARK   29  A    between atoms: _67  and  _70
REMARK   30  A    between atoms: _70  and  _71
REMARK   31  A    between atoms: _74  and  _76
REMARK   32  A    between atoms: _76  and  _77
REMARK   33  A    between atoms: _76  and  _79
REMARK   34  A    between atoms: _79  and  _80
REMARK   35  A    between atoms: _83  and  _85
REMARK   36  A    between atoms: _85  and  _86
REMARK   37  A    between atoms: _85  and  _88
REMARK   38  A    between atoms: _88  and  _89
REMARK   39  A    between atoms: _92  and  _94
REMARK   40  A    between atoms: _94  and  _95
REMARK   41  A    between atoms: _94  and  _97
REMARK   42  A    between atoms: _100  and  _102
REMARK   43  A    between atoms: _102  and  _103
REMARK   44  A    between atoms: _102  and  _105
REMARK   45  A    between atoms: _105  and  _106
REMARK   46  A    between atoms: _106  and  _107
REMARK   47  A    between atoms: _107  and  _108
REMARK   48  A    between atoms: _108  and  _109
REMARK   49  A    between atoms: _113  and  _115
REMARK   50  A    between atoms: _115  and  _116
REMARK   51  A    between atoms: _115  and  _118
REMARK   52  A    between atoms: _118  and  _119
REMARK   53  A    between atoms: _122  and  _124
REMARK   54  A    between atoms: _124  and  _125
REMARK   55  A    between atoms: _127  and  _129
REMARK   56  A    between atoms: _129  and  _130
REMARK   57  A    between atoms: _132  and  _134
REMARK   58  A    between atoms: _134  and  _135
REMARK   59  A    between atoms: _134  and  _137
REMARK   60  A    between atoms: _137  and  _138
REMARK   61  A    between atoms: _141  and  _143
REMARK   62  A    between atoms: _143  and  _144
REMARK   63  A    between atoms: _146  and  _148
REMARK   64  A    between atoms: _148  and  _149
REMARK   65  A    between atoms: _151  and  _153
REMARK   66  A    between atoms: _153  and  _154
REMARK   67  A    between atoms: _153  and  _156
REMARK   68  A    between atoms: _156  and  _157
REMARK   69  A    between atoms: _163  and  _165
REMARK   70  A    between atoms: _165  and  _166
REMARK   71  A    between atoms: _165  and  _168
REMARK   72  A    between atoms: _168  and  _169
REMARK   73  A    between atoms: _172  and  _174
REMARK   74  A    between atoms: _174  and  _175
REMARK   75  A    between atoms: _174  and  _177
REMARK   76  A    between atoms: _177  and  _178
REMARK   77  A    between atoms: _181  and  _183
REMARK   78  A    between atoms: _183  and  _184
REMARK   79  A    between atoms: _183  and  _186
REMARK   80  A    between atoms: _186  and  _187
REMARK   81  A    between atoms: _191  and  _192
REMARK   82  A    between atoms: _197  and  _199
REMARK   83  A    between atoms: _199  and  _200
REMARK   84  A    between atoms: _199  and  _202
REMARK   85  A    between atoms: _205  and  _207
REMARK   86  A    between atoms: _207  and  _208
REMARK   87  A    between atoms: _207  and  _210
REMARK   88  A    between atoms: _210  and  _211
REMARK   89  A    between atoms: _216  and  _218
REMARK   90  A    between atoms: _218  and  _219
REMARK   91  A    between atoms: _218  and  _221
REMARK   92  A    between atoms: _221  and  _222
REMARK   93  A    between atoms: _225  and  _227
REMARK   94  A    between atoms: _227  and  _228
REMARK   95  A    between atoms: _227  and  _230
REMARK   96  A    between atoms: _230  and  _231
REMARK   97  A    between atoms: _234  and  _236
REMARK   98  A    between atoms: _236  and  _237
REMARK   99  A    between atoms: _239  and  _241
REMARK  100  A    between atoms: _241  and  _242
REMARK  101  A    between atoms: _241  and  _244
REMARK  102  A    between atoms: _244  and  _245
REMARK  103  A    between atoms: _245  and  _246
REMARK  104  A    between atoms: _246  and  _247
REMARK  105  A    between atoms: _256  and  _258
REMARK  106  A    between atoms: _258  and  _259
REMARK  107  A    between atoms: _258  and  _261
REMARK  108  A    between atoms: _261  and  _262
REMARK  109  A    between atoms: _267  and  _269
REMARK  110  A    between atoms: _269  and  _270
REMARK  111  A    between atoms: _269  and  _272
REMARK  112  A    between atoms: _272  and  _273
REMARK  113  A    between atoms: _273  and  _274
REMARK  114  A    between atoms: _274  and  _275
REMARK  115  A    between atoms: _284  and  _286
REMARK  116  A    between atoms: _286  and  _287
REMARK  117  A    between atoms: _286  and  _289
REMARK  118  A    between atoms: _289  and  _290
REMARK  119  A    between atoms: _293  and  _295
REMARK  120  A    between atoms: _295  and  _296
REMARK  121  A    between atoms: _295  and  _298
REMARK  122  A    between atoms: _298  and  _299
REMARK  123  A    between atoms: _302  and  _304
REMARK  124  A    between atoms: _304  and  _305
REMARK  125  A    between atoms: _304  and  _307
REMARK  126  A    between atoms: _307  and  _308
REMARK  127  A    between atoms: _311  and  _313
REMARK  128  A    between atoms: _313  and  _314
REMARK  129  A    between atoms: _313  and  _316
REMARK  130  A    between atoms: _316  and  _317
REMARK  131  A    between atoms: _320  and  _322
REMARK  132  A    between atoms: _322  and  _323
REMARK  133  A    between atoms: _322  and  _325
REMARK  134  A    between atoms: _325  and  _326
REMARK  135  A    between atoms: _329  and  _331
REMARK  136  A    between atoms: _331  and  _332
REMARK  137  A    between atoms: _334  and  _336
REMARK  138  A    between atoms: _336  and  _337
REMARK  139  A    between atoms: _340  and  _342
REMARK  140  A    between atoms: _342  and  _343
REMARK  141  A    between atoms: _342  and  _345
REMARK  142  A    between atoms: _345  and  _346
REMARK  143  A    between atoms: _349  and  _351
REMARK  144  A    between atoms: _351  and  _352
REMARK  145  A    between atoms: _351  and  _354
REMARK  146  A    between atoms: _354  and  _355
REMARK  147  A    between atoms: _358  and  _360
REMARK  148  A    between atoms: _360  and  _361
REMARK  149  A    between atoms: _360  and  _363
REMARK  150  A    between atoms: _363  and  _364
REMARK  151  A    between atoms: _367  and  _369
REMARK  152  A    between atoms: _369  and  _370
REMARK  153  A    between atoms: _369  and  _372
REMARK  154  A    between atoms: _375  and  _377
REMARK  155  A    between atoms: _377  and  _378
REMARK  156  A    between atoms: _377  and  _380
REMARK  157  A    between atoms: _380  and  _381
REMARK  158  A    between atoms: _381  and  _382
REMARK  159  A    between atoms: _382  and  _383
REMARK  160  A    between atoms: _383  and  _384
REMARK  161  A    between atoms: _388  and  _390
REMARK  162  A    between atoms: _390  and  _391
REMARK  163  A    between atoms: _390  and  _393
REMARK  164  A    between atoms: _393  and  _394
REMARK  165  A    between atoms: _394  and  _395
REMARK  166  A    between atoms: _397  and  _399
REMARK  167  A    between atoms: _399  and  _400
REMARK  168  A    between atoms: _399  and  _402
REMARK  169  A    between atoms: _402  and  _403
REMARK  170  A    between atoms: _406  and  _408
REMARK  171  A    between atoms: _408  and  _409
REMARK  172  A    between atoms: _411  and  _413
REMARK  173  A    between atoms: _413  and  _414
REMARK  174  A    between atoms: _416  and  _418
REMARK  175  A    between atoms: _418  and  _419
REMARK  176  A    between atoms: _418  and  _421
REMARK  177  A    between atoms: _421  and  _422
REMARK  178  A    between atoms: _425  and  _427
REMARK  179  A    between atoms: _427  and  _428
REMARK  180  A    between atoms: _430  and  _432
REMARK  181  A    between atoms: _432  and  _433
REMARK  182  A    between atoms: _435  and  _437
REMARK  183  A    between atoms: _437  and  _438
REMARK  184  A    between atoms: _437  and  _440
REMARK  185  A    between atoms: _440  and  _441
REMARK  186  A    between atoms: _447  and  _449
REMARK  187  A    between atoms: _449  and  _450
REMARK  188  A    between atoms: _449  and  _452
REMARK  189  A    between atoms: _452  and  _453
REMARK  190  A    between atoms: _456  and  _458
REMARK  191  A    between atoms: _458  and  _459
REMARK  192  A    between atoms: _458  and  _461
REMARK  193  A    between atoms: _464  and  _466
REMARK  194  A    between atoms: _466  and  _467
REMARK  195  A    between atoms: _466  and  _469
REMARK  196  A    between atoms: _469  and  _470
REMARK  197  A    between atoms: _473  and  _475
REMARK  198  A    between atoms: _475  and  _476
REMARK  199  A    between atoms: _475  and  _478
REMARK  200  A    between atoms: _478  and  _479
REMARK  201  A    between atoms: _483  and  _484
REMARK  202  A    between atoms: _489  and  _491
REMARK  203  A    between atoms: _491  and  _492
REMARK  204  A    between atoms: _491  and  _494
REMARK  205  A    between atoms: _497  and  _499
REMARK  206  A    between atoms: _499  and  _500
REMARK  207  A    between atoms: _499  and  _502
REMARK  208  A    between atoms: _502  and  _503
REMARK  209  A    between atoms: _508  and  _510
REMARK  210  A    between atoms: _510  and  _511
REMARK  211  A    between atoms: _510  and  _513
REMARK  212  A    between atoms: _513  and  _514
REMARK  213  A    between atoms: _517  and  _519
REMARK  214  A    between atoms: _519  and  _520
REMARK  215  A    between atoms: _519  and  _522
REMARK  216  A    between atoms: _522  and  _523
REMARK  217  A    between atoms: _526  and  _528
REMARK  218  A    between atoms: _528  and  _529
REMARK  219  A    between atoms: _531  and  _533
REMARK  220  A    between atoms: _533  and  _534
REMARK  221  A    between atoms: _533  and  _536
REMARK  222  A    between atoms: _536  and  _537
REMARK  223  A    between atoms: _537  and  _538
REMARK  224  A    between atoms: _538  and  _539
REMARK                            x       y       z     vdW  Elec       q    Type
REMARK                         _______ _______ _______ _____ _____    ______ ____
ROOT
ATOM      1  O   HOH     1       5.269   5.687  13.053  0.00  0.00    +0.000 OA
ENDROOT
TORSDOF 0
REMARK  Name = ../refined-set-2016/1hih/1hih_pocket.pdb
REMARK  224 active torsions:
REMARK  status: ('A' for Active; 'I' for Inactive)
REMARK    1  A    between atoms: _1  and  _3
REMARK    2  A    between atoms: _3  and  _4
REMARK    3  A    between atoms: _3  and  _6
REMARK    4  A    between atoms: _6  and  _7
REMARK    5  A    between atoms: _7  and  _8
REMARK    6  A    between atoms: _8  and  _9
REMARK    7  A    between atoms: _18  and  _20
REMARK    8  A    between atoms: _20  and  _21
REMARK    9  A    between atoms: _20  and  _23
REMARK   10  A    between atoms: _23  and  _24
REMARK   11  A    between atoms: _27  and  _29
REMARK   12  A    between atoms: _29  and  _30
REMARK   13  A    between atoms: _29  and  _32
REMARK   14  A    between atoms: _32  and  _33
REMARK   15  A    between atoms: _36  and  _38
REMARK   16  A    between atoms: _38  and  _39
REMARK   17  A    between atoms: _38  and  _41
REMARK   18  A    between atoms: _41  and  _42
REMARK   19  A    between atoms: _45  and  _47
REMARK   20  A    between atoms: _47  and  _48
REMARK   21  A    between atoms: _47  and  _50
REMARK   22  A    between atoms: _50  and  _51
REMARK   23  A    between atoms: _54  and  _56
REMARK   24  A    between atoms: _56  and  _57
REMARK   25  A    between atoms: _59  and  _61
REMARK   26  A    between atoms: _61  and  _62
REMARK   27  A    between atoms: _65  and  _67
REMARK   28  A    between atoms: _67  and  _68
REMARK   29  A    between atoms: _67  and  _70
REMARK   30  A    between atoms: _70  and  _71
REMARK   31  A    between atoms: _74  and  _76
REMARK   32  A    between atoms: _76  and  _77
REMARK   33  A    between atoms: _76  and  _79
REMARK   34  A    between atoms: _79  and  _80
REMARK   35  A    between atoms: _83  and  _85
REMARK   36  A    between atoms: _85  and  _86
REMARK   37  A    between atoms: _85  and  _88
REMARK   38  A    between atoms: _88  and  _89
REMARK   39  A    between atoms: _92  and  _94
REMARK   40  A    between atoms: _94  and  _95
REMARK   41  A    between atoms: _94  and  _97
REMARK   42  A    between atoms: _100  and  _102
REMARK   43  A    between atoms: _102  and  _103
REMARK   44  A    between atoms: _102  and  _105
REMARK   45  A    between atoms: _105  and  _106
REMARK   46  A    between atoms: _106  and  _107
REMARK   47  A    between atoms: _107  and  _108
REMARK   48  A    between atoms: _108  and  _109
REMARK   49  A    between atoms: _113  and  _115
REMARK   50  A    between atoms: _115  and  _116
REMARK   51  A    between atoms: _115  and  _118
REMARK   52  A    between atoms: _118  and  _119
REMARK   53  A    between atoms: _122  and  _124
REMARK   54  A    between atoms: _124  and  _125
REMARK   55  A    between atoms: _127  and  _129
REMARK   56  A    between atoms: _129  and  _130
REMARK   57  A    between atoms: _132  and  _134
REMARK   58  A    between atoms: _134  and  _135
REMARK   59  A    between atoms: _134  and  _137
REMARK   60  A    between atoms: _137  and  _138
REMARK   61  A    between atoms: _141  and  _143
REMARK   62  A    between atoms: _143  and  _144
REMARK   63  A    between atoms: _146  and  _148
REMARK   64  A    between atoms: _148  and  _149
REMARK   65  A    between atoms: _151  and  _153
REMARK   66  A    between atoms: _153  and  _154
REMARK   67  A    between atoms: _153  and  _156
REMARK   68  A    between atoms: _156  and  _157
REMARK   69  A    between atoms: _163  and  _165
REMARK   70  A    between atoms: _165  and  _166
REMARK   71  A    between atoms: _165  and  _168
REMARK   72  A    between atoms: _168  and  _169
REMARK   73  A    between atoms: _172  and  _174
REMARK   74  A    between atoms: _174  and  _175
REMARK   75  A    between atoms: _174  and  _177
REMARK   76  A    between atoms: _177  and  _178
REMARK   77  A    between atoms: _181  and  _183
REMARK   78  A    between atoms: _183  and  _184
REMARK   79  A    between atoms: _183  and  _186
REMARK   80  A    between atoms: _186  and  _187
REMARK   81  A    between atoms: _191  and  _192
REMARK   82  A    between atoms: _197  and  _199
REMARK   83  A    between atoms: _199  and  _200
REMARK   84  A    between atoms: _199  and  _202
REMARK   85  A    between atoms: _205  and  _207
REMARK   86  A    between atoms: _207  and  _208
REMARK   87  A    between atoms: _207  and  _210
REMARK   88  A    between atoms: _210  and  _211
REMARK   89  A    between atoms: _216  and  _218
REMARK   90  A    between atoms: _218  and  _219
REMARK   91  A    between atoms: _218  and  _221
REMARK   92  A    between atoms: _221  and  _222
REMARK   93  A    between atoms: _225  and  _227
REMARK   94  A    between atoms: _227  and  _228
REMARK   95  A    between atoms: _227  and  _230
REMARK   96  A    between atoms: _230  and  _231
REMARK   97  A    between atoms: _234  and  _236
REMARK   98  A    between atoms: _236  and  _237
REMARK   99  A    between atoms: _239  and  _241
REMARK  100  A    between atoms: _241  and  _242
REMARK  101  A    between atoms: _241  and  _244
REMARK  102  A    between atoms: _244  and  _245
REMARK  103  A    between atoms: _245  and  _246
REMARK  104  A    between atoms: _246  and  _247
REMARK  105  A    between atoms: _256  and  _258
REMARK  106  A    between atoms: _258  and  _259
REMARK  107  A    between atoms: _258  and  _261
REMARK  108  A    between atoms: _261  and  _262
REMARK  109  A    between atoms: _267  and  _269
REMARK  110  A    between atoms: _269  and  _270
REMARK  111  A    between atoms: _269  and  _272
REMARK  112  A    between atoms: _272  and  _273
REMARK  113  A    between atoms: _273  and  _274
REMARK  114  A    between atoms: _274  and  _275
REMARK  115  A    between atoms: _284  and  _286
REMARK  116  A    between atoms: _286  and  _287
REMARK  117  A    between atoms: _286  and  _289
REMARK  118  A    between atoms: _289  and  _290
REMARK  119  A    between atoms: _293  and  _295
REMARK  120  A    between atoms: _295  and  _296
REMARK  121  A    between atoms: _295  and  _298
REMARK  122  A    between atoms: _298  and  _299
REMARK  123  A    between atoms: _302  and  _304
REMARK  124  A    between atoms: _304  and  _305
REMARK  125  A    between atoms: _304  and  _307
REMARK  126  A    between atoms: _307  and  _308
REMARK  127  A    between atoms: _311  and  _313
REMARK  128  A    between atoms: _313  and  _314
REMARK  129  A    between atoms: _313  and  _316
REMARK  130  A    between atoms: _316  and  _317
REMARK  131  A    between atoms: _320  and  _322
REMARK  132  A    between atoms: _322  and  _323
REMARK  133  A    between atoms: _322  and  _325
REMARK  134  A    between atoms: _325  and  _326
REMARK  135  A    between atoms: _329  and  _331
REMARK  136  A    between atoms: _331  and  _332
REMARK  137  A    between atoms: _334  and  _336
REMARK  138  A    between atoms: _336  and  _337
REMARK  139  A    between atoms: _340  and  _342
REMARK  140  A    between atoms: _342  and  _343
REMARK  141  A    between atoms: _342  and  _345
REMARK  142  A    between atoms: _345  and  _346
REMARK  143  A    between atoms: _349  and  _351
REMARK  144  A    between atoms: _351  and  _352
REMARK  145  A    between atoms: _351  and  _354
REMARK  146  A    between atoms: _354  and  _355
REMARK  147  A    between atoms: _358  and  _360
REMARK  148  A    between atoms: _360  and  _361
REMARK  149  A    between atoms: _360  and  _363
REMARK  150  A    between atoms: _363  and  _364
REMARK  151  A    between atoms: _367  and  _369
REMARK  152  A    between atoms: _369  and  _370
REMARK  153  A    between atoms: _369  and  _372
REMARK  154  A    between atoms: _375  and  _377
REMARK  155  A    between atoms: _377  and  _378
REMARK  156  A    between atoms: _377  and  _380
REMARK  157  A    between atoms: _380  and  _381
REMARK  158  A    between atoms: _381  and  _382
REMARK  159  A    between atoms: _382  and  _383
REMARK  160  A    between atoms: _383  and  _384
REMARK  161  A    between atoms: _388  and  _390
REMARK  162  A    between atoms: _390  and  _391
REMARK  163  A    between atoms: _390  and  _393
REMARK  164  A    between atoms: _393  and  _394
REMARK  165  A    between atoms: _394  and  _395
REMARK  166  A    between atoms: _397  and  _399
REMARK  167  A    between atoms: _399  and  _400
REMARK  168  A    between atoms: _399  and  _402
REMARK  169  A    between atoms: _402  and  _403
REMARK  170  A    between atoms: _406  and  _408
REMARK  171  A    between atoms: _408  and  _409
REMARK  172  A    between atoms: _411  and  _413
REMARK  173  A    between atoms: _413  and  _414
REMARK  174  A    between atoms: _416  and  _418
REMARK  175  A    between atoms: _418  and  _419
REMARK  176  A    between atoms: _418  and  _421
REMARK  177  A    between atoms: _421  and  _422
REMARK  178  A    between atoms: _425  and  _427
REMARK  179  A    between atoms: _427  and  _428
REMARK  180  A    between atoms: _430  and  _432
REMARK  181  A    between atoms: _432  and  _433
REMARK  182  A    between atoms: _435  and  _437
REMARK  183  A    between atoms: _437  and  _438
REMARK  184  A    between atoms: _437  and  _440
REMARK  185  A    between atoms: _440  and  _441
REMARK  186  A    between atoms: _447  and  _449
REMARK  187  A    between atoms: _449  and  _450
REMARK  188  A    between atoms: _449  and  _452
REMARK  189  A    between atoms: _452  and  _453
REMARK  190  A    between atoms: _456  and  _458
REMARK  191  A    between atoms: _458  and  _459
REMARK  192  A    between atoms: _458  and  _461
REMARK  193  A    between atoms: _464  and  _466
REMARK  194  A    between atoms: _466  and  _467
REMARK  195  A    between atoms: _466  and  _469
REMARK  196  A    between atoms: _469  and  _470
REMARK  197  A    between atoms: _473  and  _475
REMARK  198  A    between atoms: _475  and  _476
REMARK  199  A    between atoms: _475  and  _478
REMARK  200  A    between atoms: _478  and  _479
REMARK  201  A    between atoms: _483  and  _484
REMARK  202  A    between atoms: _489  and  _491
REMARK  203  A    between atoms: _491  and  _492
REMARK  204  A    between atoms: _491  and  _494
REMARK  205  A    between atoms: _497  and  _499
REMARK  206  A    between atoms: _499  and  _500
REMARK  207  A    between atoms: _499  and  _502
REMARK  208  A    between atoms: _502  and  _503
REMARK  209  A    between atoms: _508  and  _510
REMARK  210  A    between atoms: _510  and  _511
REMARK  211  A    between atoms: _510  and  _513
REMARK  212  A    between atoms: _513  and  _514
REMARK  213  A    between atoms: _517  and  _519
REMARK  214  A    between atoms: _519  and  _520
REMARK  215  A    between atoms: _519  and  _522
REMARK  216  A    between atoms: _522  and  _523
REMARK  217  A    between atoms: _526  and  _528
REMARK  218  A    between atoms: _528  and  _529
REMARK  219  A    between atoms: _531  and  _533
REMARK  220  A    between atoms: _533  and  _534
REMARK  221  A    between atoms: _533  and  _536
REMARK  222  A    between atoms: _536  and  _537
REMARK  223  A    between atoms: _537  and  _538
REMARK  224  A    between atoms: _538  and  _539
REMARK                            x       y       z     vdW  Elec       q    Type
REMARK                         _______ _______ _______ _____ _____    ______ ____
ROOT
ATOM      1  O   HOH     1      -6.326   5.309  12.109  0.00  0.00    +0.000 OA
ENDROOT
TORSDOF 0
REMARK  Name = ../refined-set-2016/1hih/1hih_pocket.pdb
REMARK  224 active torsions:
REMARK  status: ('A' for Active; 'I' for Inactive)
REMARK    1  A    between atoms: _1  and  _3
REMARK    2  A    between atoms: _3  and  _4
REMARK    3  A    between atoms: _3  and  _6
REMARK    4  A    between atoms: _6  and  _7
REMARK    5  A    between atoms: _7  and  _8
REMARK    6  A    between atoms: _8  and  _9
REMARK    7  A    between atoms: _18  and  _20
REMARK    8  A    between atoms: _20  and  _21
REMARK    9  A    between atoms: _20  and  _23
REMARK   10  A    between atoms: _23  and  _24
REMARK   11  A    between atoms: _27  and  _29
REMARK   12  A    between atoms: _29  and  _30
REMARK   13  A    between atoms: _29  and  _32
REMARK   14  A    between atoms: _32  and  _33
REMARK   15  A    between atoms: _36  and  _38
REMARK   16  A    between atoms: _38  and  _39
REMARK   17  A    between atoms: _38  and  _41
REMARK   18  A    between atoms: _41  and  _42
REMARK   19  A    between atoms: _45  and  _47
REMARK   20  A    between atoms: _47  and  _48
REMARK   21  A    between atoms: _47  and  _50
REMARK   22  A    between atoms: _50  and  _51
REMARK   23  A    between atoms: _54  and  _56
REMARK   24  A    between atoms: _56  and  _57
REMARK   25  A    between atoms: _59  and  _61
REMARK   26  A    between atoms: _61  and  _62
REMARK   27  A    between atoms: _65  and  _67
REMARK   28  A    between atoms: _67  and  _68
REMARK   29  A    between atoms: _67  and  _70
REMARK   30  A    between atoms: _70  and  _71
REMARK   31  A    between atoms: _74  and  _76
REMARK   32  A    between atoms: _76  and  _77
REMARK   33  A    between atoms: _76  and  _79
REMARK   34  A    between atoms: _79  and  _80
REMARK   35  A    between atoms: _83  and  _85
REMARK   36  A    between atoms: _85  and  _86
REMARK   37  A    between atoms: _85  and  _88
REMARK   38  A    between atoms: _88  and  _89
REMARK   39  A    between atoms: _92  and  _94
REMARK   40  A    between atoms: _94  and  _95
REMARK   41  A    between atoms: _94  and  _97
REMARK   42  A    between atoms: _100  and  _102
REMARK   43  A    between atoms: _102  and  _103
REMARK   44  A    between atoms: _102  and  _105
REMARK   45  A    between atoms: _105  and  _106
REMARK   46  A    between atoms: _106  and  _107
REMARK   47  A    between atoms: _107  and  _108
REMARK   48  A    between atoms: _108  and  _109
REMARK   49  A    between atoms: _113  and  _115
REMARK   50  A    between atoms: _115  and  _116
REMARK   51  A    between atoms: _115  and  _118
REMARK   52  A    between atoms: _118  and  _119
REMARK   53  A    between atoms: _122  and  _124
REMARK   54  A    between atoms: _124  and  _125
REMARK   55  A    between atoms: _127  and  _129
REMARK   56  A    between atoms: _129  and  _130
REMARK   57  A    between atoms: _132  and  _134
REMARK   58  A    between atoms: _134  and  _135
REMARK   59  A    between atoms: _134  and  _137
REMARK   60  A    between atoms: _137  and  _138
REMARK   61  A    between atoms: _141  and  _143
REMARK   62  A    between atoms: _143  and  _144
REMARK   63  A    between atoms: _146  and  _148
REMARK   64  A    between atoms: _148  and  _149
REMARK   65  A    between atoms: _151  and  _153
REMARK   66  A    between atoms: _153  and  _154
REMARK   67  A    between atoms: _153  and  _156
REMARK   68  A    between atoms: _156  and  _157
REMARK   69  A    between atoms: _163  and  _165
REMARK   70  A    between atoms: _165  and  _166
REMARK   71  A    between atoms: _165  and  _168
REMARK   72  A    between atoms: _168  and  _169
REMARK   73  A    between atoms: _172  and  _174
REMARK   74  A    between atoms: _174  and  _175
REMARK   75  A    between atoms: _174  and  _177
REMARK   76  A    between atoms: _177  and  _178
REMARK   77  A    between atoms: _181  and  _183
REMARK   78  A    between atoms: _183  and  _184
REMARK   79  A    between atoms: _183  and  _186
REMARK   80  A    between atoms: _186  and  _187
REMARK   81  A    between atoms: _191  and  _192
REMARK   82  A    between atoms: _197  and  _199
REMARK   83  A    between atoms: _199  and  _200
REMARK   84  A    between atoms: _199  and  _202
REMARK   85  A    between atoms: _205  and  _207
REMARK   86  A    between atoms: _207  and  _208
REMARK   87  A    between atoms: _207  and  _210
REMARK   88  A    between atoms: _210  and  _211
REMARK   89  A    between atoms: _216  and  _218
REMARK   90  A    between atoms: _218  and  _219
REMARK   91  A    between atoms: _218  and  _221
REMARK   92  A    between atoms: _221  and  _222
REMARK   93  A    between atoms: _225  and  _227
REMARK   94  A    between atoms: _227  and  _228
REMARK   95  A    between atoms: _227  and  _230
REMARK   96  A    between atoms: _230  and  _231
REMARK   97  A    between atoms: _234  and  _236
REMARK   98  A    between atoms: _236  and  _237
REMARK   99  A    between atoms: _239  and  _241
REMARK  100  A    between atoms: _241  and  _242
REMARK  101  A    between atoms: _241  and  _244
REMARK  102  A    between atoms: _244  and  _245
REMARK  103  A    between atoms: _245  and  _246
REMARK  104  A    between atoms: _246  and  _247
REMARK  105  A    between atoms: _256  and  _258
REMARK  106  A    between atoms: _258  and  _259
REMARK  107  A    between atoms: _258  and  _261
REMARK  108  A    between atoms: _261  and  _262
REMARK  109  A    between atoms: _267  and  _269
REMARK  110  A    between atoms: _269  and  _270
REMARK  111  A    between atoms: _269  and  _272
REMARK  112  A    between atoms: _272  and  _273
REMARK  113  A    between atoms: _273  and  _274
REMARK  114  A    between atoms: _274  and  _275
REMARK  115  A    between atoms: _284  and  _286
REMARK  116  A    between atoms: _286  and  _287
REMARK  117  A    between atoms: _286  and  _289
REMARK  118  A    between atoms: _289  and  _290
REMARK  119  A    between atoms: _293  and  _295
REMARK  120  A    between atoms: _295  and  _296
REMARK  121  A    between atoms: _295  and  _298
REMARK  122  A    between atoms: _298  and  _299
REMARK  123  A    between atoms: _302  and  _304
REMARK  124  A    between atoms: _304  and  _305
REMARK  125  A    between atoms: _304  and  _307
REMARK  126  A    between atoms: _307  and  _308
REMARK  127  A    between atoms: _311  and  _313
REMARK  128  A    between atoms: _313  and  _314
REMARK  129  A    between atoms: _313  and  _316
REMARK  130  A    between atoms: _316  and  _317
REMARK  131  A    between atoms: _320  and  _322
REMARK  132  A    between atoms: _322  and  _323
REMARK  133  A    between atoms: _322  and  _325
REMARK  134  A    between atoms: _325  and  _326
REMARK  135  A    between atoms: _329  and  _331
REMARK  136  A    between atoms: _331  and  _332
REMARK  137  A    between atoms: _334  and  _336
REMARK  138  A    between atoms: _336  and  _337
REMARK  139  A    between atoms: _340  and  _342
REMARK  140  A    between atoms: _342  and  _343
REMARK  141  A    between atoms: _342  and  _345
REMARK  142  A    between atoms: _345  and  _346
REMARK  143  A    between atoms: _349  and  _351
REMARK  144  A    between atoms: _351  and  _352
REMARK  145  A    between atoms: _351  and  _354
REMARK  146  A    between atoms: _354  and  _355
REMARK  147  A    between atoms: _358  and  _360
REMARK  148  A    between atoms: _360  and  _361
REMARK  149  A    between atoms: _360  and  _363
REMARK  150  A    between atoms: _363  and  _364
REMARK  151  A    between atoms: _367  and  _369
REMARK  152  A    between atoms: _369  and  _370
REMARK  153  A    between atoms: _369  and  _372
REMARK  154  A    between atoms: _375  and  _377
REMARK  155  A    between atoms: _377  and  _378
REMARK  156  A    between atoms: _377  and  _380
REMARK  157  A    between atoms: _380  and  _381
REMARK  158  A    between atoms: _381  and  _382
REMARK  159  A    between atoms: _382  and  _383
REMARK  160  A    between atoms: _383  and  _384
REMARK  161  A    between atoms: _388  and  _390
REMARK  162  A    between atoms: _390  and  _391
REMARK  163  A    between atoms: _390  and  _393
REMARK  164  A    between atoms: _393  and  _394
REMARK  165  A    between atoms: _394  and  _395
REMARK  166  A    between atoms: _397  and  _399
REMARK  167  A    between atoms: _399  and  _400
REMARK  168  A    between atoms: _399  and  _402
REMARK  169  A    between atoms: _402  and  _403
REMARK  170  A    between atoms: _406  and  _408
REMARK  171  A    between atoms: _408  and  _409
REMARK  172  A    between atoms: _411  and  _413
REMARK  173  A    between atoms: _413  and  _414
REMARK  174  A    between atoms: _416  and  _418
REMARK  175  A    between atoms: _418  and  _419
REMARK  176  A    between atoms: _418  and  _421
REMARK  177  A    between atoms: _421  and  _422
REMARK  178  A    between atoms: _425  and  _427
REMARK  179  A    between atoms: _427  and  _428
REMARK  180  A    between atoms: _430  and  _432
REMARK  181  A    between atoms: _432  and  _433
REMARK  182  A    between atoms: _435  and  _437
REMARK  183  A    between atoms: _437  and  _438
REMARK  184  A    between atoms: _437  and  _440
REMARK  185  A    between atoms: _440  and  _441
REMARK  186  A    between atoms: _447  and  _449
REMARK  187  A    between atoms: _449  and  _450
REMARK  188  A    between atoms: _449  and  _452
REMARK  189  A    between atoms: _452  and  _453
REMARK  190  A    between atoms: _456  and  _458
REMARK  191  A    between atoms: _458  and  _459
REMARK  192  A    between atoms: _458  and  _461
REMARK  193  A    between atoms: _464  and  _466
REMARK  194  A    between atoms: _466  and  _467
REMARK  195  A    between atoms: _466  and  _469
REMARK  196  A    between atoms: _469  and  _470
REMARK  197  A    between atoms: _473  and  _475
REMARK  198  A    between atoms: _475  and  _476
REMARK  199  A    between atoms: _475  and  _478
REMARK  200  A    between atoms: _478  and  _479
REMARK  201  A    between atoms: _483  and  _484
REMARK  202  A    between atoms: _489  and  _491
REMARK  203  A    between atoms: _491  and  _492
REMARK  204  A    between atoms: _491  and  _494
REMARK  205  A    between atoms: _497  and  _499
REMARK  206  A    between atoms: _499  and  _500
REMARK  207  A    between atoms: _499  and  _502
REMARK  208  A    between atoms: _502  and  _503
REMARK  209  A    between atoms: _508  and  _510
REMARK  210  A    between atoms: _510  and  _511
REMARK  211  A    between atoms: _510  and  _513
REMARK  212  A    between atoms: _513  and  _514
REMARK  213  A    between atoms: _517  and  _519
REMARK  214  A    between atoms: _519  and  _520
REMARK  215  A    between atoms: _519  and  _522
REMARK  216  A    between atoms: _522  and  _523
REMARK  217  A    between atoms: _526  and  _528
REMARK  218  A    between atoms: _528  and  _529
REMARK  219  A    between atoms: _531  and  _533
REMARK  220  A    between atoms: _533  and  _534
REMARK  221  A    between atoms: _533  and  _536
REMARK  222  A    between atoms: _536  and  _537
REMARK  223  A    between atoms: _537  and  _538
REMARK  224  A    between atoms: _538  and  _539
REMARK                            x       y       z     vdW  Elec       q    Type
REMARK                         _______ _______ _______ _____ _____    ______ ____
ROOT
ATOM      1  O   HOH     1       4.949   7.244  15.153  0.00  0.00    +0.000 OA
ENDROOT
TORSDOF 0
REMARK  Name = ../refined-set-2016/1hih/1hih_pocket.pdb
REMARK  224 active torsions:
REMARK  status: ('A' for Active; 'I' for Inactive)
REMARK    1  A    between atoms: _1  and  _3
REMARK    2  A    between atoms: _3  and  _4
REMARK    3  A    between atoms: _3  and  _6
REMARK    4  A    between atoms: _6  and  _7
REMARK    5  A    between atoms: _7  and  _8
REMARK    6  A    between atoms: _8  and  _9
REMARK    7  A    between atoms: _18  and  _20
REMARK    8  A    between atoms: _20  and  _21
REMARK    9  A    between atoms: _20  and  _23
REMARK   10  A    between atoms: _23  and  _24
REMARK   11  A    between atoms: _27  and  _29
REMARK   12  A    between atoms: _29  and  _30
REMARK   13  A    between atoms: _29  and  _32
REMARK   14  A    between atoms: _32  and  _33
REMARK   15  A    between atoms: _36  and  _38
REMARK   16  A    between atoms: _38  and  _39
REMARK   17  A    between atoms: _38  and  _41
REMARK   18  A    between atoms: _41  and  _42
REMARK   19  A    between atoms: _45  and  _47
REMARK   20  A    between atoms: _47  and  _48
REMARK   21  A    between atoms: _47  and  _50
REMARK   22  A    between atoms: _50  and  _51
REMARK   23  A    between atoms: _54  and  _56
REMARK   24  A    between atoms: _56  and  _57
REMARK   25  A    between atoms: _59  and  _61
REMARK   26  A    between atoms: _61  and  _62
REMARK   27  A    between atoms: _65  and  _67
REMARK   28  A    between atoms: _67  and  _68
REMARK   29  A    between atoms: _67  and  _70
REMARK   30  A    between atoms: _70  and  _71
REMARK   31  A    between atoms: _74  and  _76
REMARK   32  A    between atoms: _76  and  _77
REMARK   33  A    between atoms: _76  and  _79
REMARK   34  A    between atoms: _79  and  _80
REMARK   35  A    between atoms: _83  and  _85
REMARK   36  A    between atoms: _85  and  _86
REMARK   37  A    between atoms: _85  and  _88
REMARK   38  A    between atoms: _88  and  _89
REMARK   39  A    between atoms: _92  and  _94
REMARK   40  A    between atoms: _94  and  _95
REMARK   41  A    between atoms: _94  and  _97
REMARK   42  A    between atoms: _100  and  _102
REMARK   43  A    between atoms: _102  and  _103
REMARK   44  A    between atoms: _102  and  _105
REMARK   45  A    between atoms: _105  and  _106
REMARK   46  A    between atoms: _106  and  _107
REMARK   47  A    between atoms: _107  and  _108
REMARK   48  A    between atoms: _108  and  _109
REMARK   49  A    between atoms: _113  and  _115
REMARK   50  A    between atoms: _115  and  _116
REMARK   51  A    between atoms: _115  and  _118
REMARK   52  A    between atoms: _118  and  _119
REMARK   53  A    between atoms: _122  and  _124
REMARK   54  A    between atoms: _124  and  _125
REMARK   55  A    between atoms: _127  and  _129
REMARK   56  A    between atoms: _129  and  _130
REMARK   57  A    between atoms: _132  and  _134
REMARK   58  A    between atoms: _134  and  _135
REMARK   59  A    between atoms: _134  and  _137
REMARK   60  A    between atoms: _137  and  _138
REMARK   61  A    between atoms: _141  and  _143
REMARK   62  A    between atoms: _143  and  _144
REMARK   63  A    between atoms: _146  and  _148
REMARK   64  A    between atoms: _148  and  _149
REMARK   65  A    between atoms: _151  and  _153
REMARK   66  A    between atoms: _153  and  _154
REMARK   67  A    between atoms: _153  and  _156
REMARK   68  A    between atoms: _156  and  _157
REMARK   69  A    between atoms: _163  and  _165
REMARK   70  A    between atoms: _165  and  _166
REMARK   71  A    between atoms: _165  and  _168
REMARK   72  A    between atoms: _168  and  _169
REMARK   73  A    between atoms: _172  and  _174
REMARK   74  A    between atoms: _174  and  _175
REMARK   75  A    between atoms: _174  and  _177
REMARK   76  A    between atoms: _177  and  _178
REMARK   77  A    between atoms: _181  and  _183
REMARK   78  A    between atoms: _183  and  _184
REMARK   79  A    between atoms: _183  and  _186
REMARK   80  A    between atoms: _186  and  _187
REMARK   81  A    between atoms: _191  and  _192
REMARK   82  A    between atoms: _197  and  _199
REMARK   83  A    between atoms: _199  and  _200
REMARK   84  A    between atoms: _199  and  _202
REMARK   85  A    between atoms: _205  and  _207
REMARK   86  A    between atoms: _207  and  _208
REMARK   87  A    between atoms: _207  and  _210
REMARK   88  A    between atoms: _210  and  _211
REMARK   89  A    between atoms: _216  and  _218
REMARK   90  A    between atoms: _218  and  _219
REMARK   91  A    between atoms: _218  and  _221
REMARK   92  A    between atoms: _221  and  _222
REMARK   93  A    between atoms: _225  and  _227
REMARK   94  A    between atoms: _227  and  _228
REMARK   95  A    between atoms: _227  and  _230
REMARK   96  A    between atoms: _230  and  _231
REMARK   97  A    between atoms: _234  and  _236
REMARK   98  A    between atoms: _236  and  _237
REMARK   99  A    between atoms: _239  and  _241
REMARK  100  A    between atoms: _241  and  _242
REMARK  101  A    between atoms: _241  and  _244
REMARK  102  A    between atoms: _244  and  _245
REMARK  103  A    between atoms: _245  and  _246
REMARK  104  A    between atoms: _246  and  _247
REMARK  105  A    between atoms: _256  and  _258
REMARK  106  A    between atoms: _258  and  _259
REMARK  107  A    between atoms: _258  and  _261
REMARK  108  A    between atoms: _261  and  _262
REMARK  109  A    between atoms: _267  and  _269
REMARK  110  A    between atoms: _269  and  _270
REMARK  111  A    between atoms: _269  and  _272
REMARK  112  A    between atoms: _272  and  _273
REMARK  113  A    between atoms: _273  and  _274
REMARK  114  A    between atoms: _274  and  _275
REMARK  115  A    between atoms: _284  and  _286
REMARK  116  A    between atoms: _286  and  _287
REMARK  117  A    between atoms: _286  and  _289
REMARK  118  A    between atoms: _289  and  _290
REMARK  119  A    between atoms: _293  and  _295
REMARK  120  A    between atoms: _295  and  _296
REMARK  121  A    between atoms: _295  and  _298
REMARK  122  A    between atoms: _298  and  _299
REMARK  123  A    between atoms: _302  and  _304
REMARK  124  A    between atoms: _304  and  _305
REMARK  125  A    between atoms: _304  and  _307
REMARK  126  A    between atoms: _307  and  _308
REMARK  127  A    between atoms: _311  and  _313
REMARK  128  A    between atoms: _313  and  _314
REMARK  129  A    between atoms: _313  and  _316
REMARK  130  A    between atoms: _316  and  _317
REMARK  131  A    between atoms: _320  and  _322
REMARK  132  A    between atoms: _322  and  _323
REMARK  133  A    between atoms: _322  and  _325
REMARK  134  A    between atoms: _325  and  _326
REMARK  135  A    between atoms: _329  and  _331
REMARK  136  A    between atoms: _331  and  _332
REMARK  137  A    between atoms: _334  and  _336
REMARK  138  A    between atoms: _336  and  _337
REMARK  139  A    between atoms: _340  and  _342
REMARK  140  A    between atoms: _342  and  _343
REMARK  141  A    between atoms: _342  and  _345
REMARK  142  A    between atoms: _345  and  _346
REMARK  143  A    between atoms: _349  and  _351
REMARK  144  A    between atoms: _351  and  _352
REMARK  145  A    between atoms: _351  and  _354
REMARK  146  A    between atoms: _354  and  _355
REMARK  147  A    between atoms: _358  and  _360
REMARK  148  A    between atoms: _360  and  _361
REMARK  149  A    between atoms: _360  and  _363
REMARK  150  A    between atoms: _363  and  _364
REMARK  151  A    between atoms: _367  and  _369
REMARK  152  A    between atoms: _369  and  _370
REMARK  153  A    between atoms: _369  and  _372
REMARK  154  A    between atoms: _375  and  _377
REMARK  155  A    between atoms: _377  and  _378
REMARK  156  A    between atoms: _377  and  _380
REMARK  157  A    between atoms: _380  and  _381
REMARK  158  A    between atoms: _381  and  _382
REMARK  159  A    between atoms: _382  and  _383
REMARK  160  A    between atoms: _383  and  _384
REMARK  161  A    between atoms: _388  and  _390
REMARK  162  A    between atoms: _390  and  _391
REMARK  163  A    between atoms: _390  and  _393
REMARK  164  A    between atoms: _393  and  _394
REMARK  165  A    between atoms: _394  and  _395
REMARK  166  A    between atoms: _397  and  _399
REMARK  167  A    between atoms: _399  and  _400
REMARK  168  A    between atoms: _399  and  _402
REMARK  169  A    between atoms: _402  and  _403
REMARK  170  A    between atoms: _406  and  _408
REMARK  171  A    between atoms: _408  and  _409
REMARK  172  A    between atoms: _411  and  _413
REMARK  173  A    between atoms: _413  and  _414
REMARK  174  A    between atoms: _416  and  _418
REMARK  175  A    between atoms: _418  and  _419
REMARK  176  A    between atoms: _418  and  _421
REMARK  177  A    between atoms: _421  and  _422
REMARK  178  A    between atoms: _425  and  _427
REMARK  179  A    between atoms: _427  and  _428
REMARK  180  A    between atoms: _430  and  _432
REMARK  181  A    between atoms: _432  and  _433
REMARK  182  A    between atoms: _435  and  _437
REMARK  183  A    between atoms: _437  and  _438
REMARK  184  A    between atoms: _437  and  _440
REMARK  185  A    between atoms: _440  and  _441
REMARK  186  A    between atoms: _447  and  _449
REMARK  187  A    between atoms: _449  and  _450
REMARK  188  A    between atoms: _449  and  _452
REMARK  189  A    between atoms: _452  and  _453
REMARK  190  A    between atoms: _456  and  _458
REMARK  191  A    between atoms: _458  and  _459
REMARK  192  A    between atoms: _458  and  _461
REMARK  193  A    between atoms: _464  and  _466
REMARK  194  A    between atoms: _466  and  _467
REMARK  195  A    between atoms: _466  and  _469
REMARK  196  A    between atoms: _469  and  _470
REMARK  197  A    between atoms: _473  and  _475
REMARK  198  A    between atoms: _475  and  _476
REMARK  199  A    between atoms: _475  and  _478
REMARK  200  A    between atoms: _478  and  _479
REMARK  201  A    between atoms: _483  and  _484
REMARK  202  A    between atoms: _489  and  _491
REMARK  203  A    between atoms: _491  and  _492
REMARK  204  A    between atoms: _491  and  _494
REMARK  205  A    between atoms: _497  and  _499
REMARK  206  A    between atoms: _499  and  _500
REMARK  207  A    between atoms: _499  and  _502
REMARK  208  A    between atoms: _502  and  _503
REMARK  209  A    between atoms: _508  and  _510
REMARK  210  A    between atoms: _510  and  _511
REMARK  211  A    between atoms: _510  and  _513
REMARK  212  A    between atoms: _513  and  _514
REMARK  213  A    between atoms: _517  and  _519
REMARK  214  A    between atoms: _519  and  _520
REMARK  215  A    between atoms: _519  and  _522
REMARK  216  A    between atoms: _522  and  _523
REMARK  217  A    between atoms: _526  and  _528
REMARK  218  A    between atoms: _528  and  _529
REMARK  219  A    between atoms: _531  and  _533
REMARK  220  A    between atoms: _533  and  _534
REMARK  221  A    between atoms: _533  and  _536
REMARK  222  A    between atoms: _536  and  _537
REMARK  223  A    between atoms: _537  and  _538
REMARK  224  A    between atoms: _538  and  _539
REMARK                            x       y       z     vdW  Elec       q    Type
REMARK                         _______ _______ _______ _____ _____    ______ ____
ROOT
ATOM      1  O   HOH     1       0.155  -8.713  23.157  0.00  0.00    +0.000 OA
ENDROOT
TORSDOF 0
REMARK  Name = ../refined-set-2016/1hih/1hih_pocket.pdb
REMARK  224 active torsions:
REMARK  status: ('A' for Active; 'I' for Inactive)
REMARK    1  A    between atoms: _1  and  _3
REMARK    2  A    between atoms: _3  and  _4
REMARK    3  A    between atoms: _3  and  _6
REMARK    4  A    between atoms: _6  and  _7
REMARK    5  A    between atoms: _7  and  _8
REMARK    6  A    between atoms: _8  and  _9
REMARK    7  A    between atoms: _18  and  _20
REMARK    8  A    between atoms: _20  and  _21
REMARK    9  A    between atoms: _20  and  _23
REMARK   10  A    between atoms: _23  and  _24
REMARK   11  A    between atoms: _27  and  _29
REMARK   12  A    between atoms: _29  and  _30
REMARK   13  A    between atoms: _29  and  _32
REMARK   14  A    between atoms: _32  and  _33
REMARK   15  A    between atoms: _36  and  _38
REMARK   16  A    between atoms: _38  and  _39
REMARK   17  A    between atoms: _38  and  _41
REMARK   18  A    between atoms: _41  and  _42
REMARK   19  A    between atoms: _45  and  _47
REMARK   20  A    between atoms: _47  and  _48
REMARK   21  A    between atoms: _47  and  _50
REMARK   22  A    between atoms: _50  and  _51
REMARK   23  A    between atoms: _54  and  _56
REMARK   24  A    between atoms: _56  and  _57
REMARK   25  A    between atoms: _59  and  _61
REMARK   26  A    between atoms: _61  and  _62
REMARK   27  A    between atoms: _65  and  _67
REMARK   28  A    between atoms: _67  and  _68
REMARK   29  A    between atoms: _67  and  _70
REMARK   30  A    between atoms: _70  and  _71
REMARK   31  A    between atoms: _74  and  _76
REMARK   32  A    between atoms: _76  and  _77
REMARK   33  A    between atoms: _76  and  _79
REMARK   34  A    between atoms: _79  and  _80
REMARK   35  A    between atoms: _83  and  _85
REMARK   36  A    between atoms: _85  and  _86
REMARK   37  A    between atoms: _85  and  _88
REMARK   38  A    between atoms: _88  and  _89
REMARK   39  A    between atoms: _92  and  _94
REMARK   40  A    between atoms: _94  and  _95
REMARK   41  A    between atoms: _94  and  _97
REMARK   42  A    between atoms: _100  and  _102
REMARK   43  A    between atoms: _102  and  _103
REMARK   44  A    between atoms: _102  and  _105
REMARK   45  A    between atoms: _105  and  _106
REMARK   46  A    between atoms: _106  and  _107
REMARK   47  A    between atoms: _107  and  _108
REMARK   48  A    between atoms: _108  and  _109
REMARK   49  A    between atoms: _113  and  _115
REMARK   50  A    between atoms: _115  and  _116
REMARK   51  A    between atoms: _115  and  _118
REMARK   52  A    between atoms: _118  and  _119
REMARK   53  A    between atoms: _122  and  _124
REMARK   54  A    between atoms: _124  and  _125
REMARK   55  A    between atoms: _127  and  _129
REMARK   56  A    between atoms: _129  and  _130
REMARK   57  A    between atoms: _132  and  _134
REMARK   58  A    between atoms: _134  and  _135
REMARK   59  A    between atoms: _134  and  _137
REMARK   60  A    between atoms: _137  and  _138
REMARK   61  A    between atoms: _141  and  _143
REMARK   62  A    between atoms: _143  and  _144
REMARK   63  A    between atoms: _146  and  _148
REMARK   64  A    between atoms: _148  and  _149
REMARK   65  A    between atoms: _151  and  _153
REMARK   66  A    between atoms: _153  and  _154
REMARK   67  A    between atoms: _153  and  _156
REMARK   68  A    between atoms: _156  and  _157
REMARK   69  A    between atoms: _163  and  _165
REMARK   70  A    between atoms: _165  and  _166
REMARK   71  A    between atoms: _165  and  _168
REMARK   72  A    between atoms: _168  and  _169
REMARK   73  A    between atoms: _172  and  _174
REMARK   74  A    between atoms: _174  and  _175
REMARK   75  A    between atoms: _174  and  _177
REMARK   76  A    between atoms: _177  and  _178
REMARK   77  A    between atoms: _181  and  _183
REMARK   78  A    between atoms: _183  and  _184
REMARK   79  A    between atoms: _183  and  _186
REMARK   80  A    between atoms: _186  and  _187
REMARK   81  A    between atoms: _191  and  _192
REMARK   82  A    between atoms: _197  and  _199
REMARK   83  A    between atoms: _199  and  _200
REMARK   84  A    between atoms: _199  and  _202
REMARK   85  A    between atoms: _205  and  _207
REMARK   86  A    between atoms: _207  and  _208
REMARK   87  A    between atoms: _207  and  _210
REMARK   88  A    between atoms: _210  and  _211
REMARK   89  A    between atoms: _216  and  _218
REMARK   90  A    between atoms: _218  and  _219
REMARK   91  A    between atoms: _218  and  _221
REMARK   92  A    between atoms: _221  and  _222
REMARK   93  A    between atoms: _225  and  _227
REMARK   94  A    between atoms: _227  and  _228
REMARK   95  A    between atoms: _227  and  _230
REMARK   96  A    between atoms: _230  and  _231
REMARK   97  A    between atoms: _234  and  _236
REMARK   98  A    between atoms: _236  and  _237
REMARK   99  A    between atoms: _239  and  _241
REMARK  100  A    between atoms: _241  and  _242
REMARK  101  A    between atoms: _241  and  _244
REMARK  102  A    between atoms: _244  and  _245
REMARK  103  A    between atoms: _245  and  _246
REMARK  104  A    between atoms: _246  and  _247
REMARK  105  A    between atoms: _256  and  _258
REMARK  106  A    between atoms: _258  and  _259
REMARK  107  A    between atoms: _258  and  _261
REMARK  108  A    between atoms: _261  and  _262
REMARK  109  A    between atoms: _267  and  _269
REMARK  110  A    between atoms: _269  and  _270
REMARK  111  A    between atoms: _269  and  _272
REMARK  112  A    between atoms: _272  and  _273
REMARK  113  A    between atoms: _273  and  _274
REMARK  114  A    between atoms: _274  and  _275
REMARK  115  A    between atoms: _284  and  _286
REMARK  116  A    between atoms: _286  and  _287
REMARK  117  A    between atoms: _286  and  _289
REMARK  118  A    between atoms: _289  and  _290
REMARK  119  A    between atoms: _293  and  _295
REMARK  120  A    between atoms: _295  and  _296
REMARK  121  A    between atoms: _295  and  _298
REMARK  122  A    between atoms: _298  and  _299
REMARK  123  A    between atoms: _302  and  _304
REMARK  124  A    between atoms: _304  and  _305
REMARK  125  A    between atoms: _304  and  _307
REMARK  126  A    between atoms: _307  and  _308
REMARK  127  A    between atoms: _311  and  _313
REMARK  128  A    between atoms: _313  and  _314
REMARK  129  A    between atoms: _313  and  _316
REMARK  130  A    between atoms: _316  and  _317
REMARK  131  A    between atoms: _320  and  _322
REMARK  132  A    between atoms: _322  and  _323
REMARK  133  A    between atoms: _322  and  _325
REMARK  134  A    between atoms: _325  and  _326
REMARK  135  A    between atoms: _329  and  _331
REMARK  136  A    between atoms: _331  and  _332
REMARK  137  A    between atoms: _334  and  _336
REMARK  138  A    between atoms: _336  and  _337
REMARK  139  A    between atoms: _340  and  _342
REMARK  140  A    between atoms: _342  and  _343
REMARK  141  A    between atoms: _342  and  _345
REMARK  142  A    between atoms: _345  and  _346
REMARK  143  A    between atoms: _349  and  _351
REMARK  144  A    between atoms: _351  and  _352
REMARK  145  A    between atoms: _351  and  _354
REMARK  146  A    between atoms: _354  and  _355
REMARK  147  A    between atoms: _358  and  _360
REMARK  148  A    between atoms: _360  and  _361
REMARK  149  A    between atoms: _360  and  _363
REMARK  150  A    between atoms: _363  and  _364
REMARK  151  A    between atoms: _367  and  _369
REMARK  152  A    between atoms: _369  and  _370
REMARK  153  A    between atoms: _369  and  _372
REMARK  154  A    between atoms: _375  and  _377
REMARK  155  A    between atoms: _377  and  _378
REMARK  156  A    between atoms: _377  and  _380
REMARK  157  A    between atoms: _380  and  _381
REMARK  158  A    between atoms: _381  and  _382
REMARK  159  A    between atoms: _382  and  _383
REMARK  160  A    between atoms: _383  and  _384
REMARK  161  A    between atoms: _388  and  _390
REMARK  162  A    between atoms: _390  and  _391
REMARK  163  A    between atoms: _390  and  _393
REMARK  164  A    between atoms: _393  and  _394
REMARK  165  A    between atoms: _394  and  _395
REMARK  166  A    between atoms: _397  and  _399
REMARK  167  A    between atoms: _399  and  _400
REMARK  168  A    between atoms: _399  and  _402
REMARK  169  A    between atoms: _402  and  _403
REMARK  170  A    between atoms: _406  and  _408
REMARK  171  A    between atoms: _408  and  _409
REMARK  172  A    between atoms: _411  and  _413
REMARK  173  A    between atoms: _413  and  _414
REMARK  174  A    between atoms: _416  and  _418
REMARK  175  A    between atoms: _418  and  _419
REMARK  176  A    between atoms: _418  and  _421
REMARK  177  A    between atoms: _421  and  _422
REMARK  178  A    between atoms: _425  and  _427
REMARK  179  A    between atoms: _427  and  _428
REMARK  180  A    between atoms: _430  and  _432
REMARK  181  A    between atoms: _432  and  _433
REMARK  182  A    between atoms: _435  and  _437
REMARK  183  A    between atoms: _437  and  _438
REMARK  184  A    between atoms: _437  and  _440
REMARK  185  A    between atoms: _440  and  _441
REMARK  186  A    between atoms: _447  and  _449
REMARK  187  A    between atoms: _449  and  _450
REMARK  188  A    between atoms: _449  and  _452
REMARK  189  A    between atoms: _452  and  _453
REMARK  190  A    between atoms: _456  and  _458
REMARK  191  A    between atoms: _458  and  _459
REMARK  192  A    between atoms: _458  and  _461
REMARK  193  A    between atoms: _464  and  _466
REMARK  194  A    between atoms: _466  and  _467
REMARK  195  A    between atoms: _466  and  _469
REMARK  196  A    between atoms: _469  and  _470
REMARK  197  A    between atoms: _473  and  _475
REMARK  198  A    between atoms: _475  and  _476
REMARK  199  A    between atoms: _475  and  _478
REMARK  200  A    between atoms: _478  and  _479
REMARK  201  A    between atoms: _483  and  _484
REMARK  202  A    between atoms: _489  and  _491
REMARK  203  A    between atoms: _491  and  _492
REMARK  204  A    between atoms: _491  and  _494
REMARK  205  A    between atoms: _497  and  _499
REMARK  206  A    between atoms: _499  and  _500
REMARK  207  A    between atoms: _499  and  _502
REMARK  208  A    between atoms: _502  and  _503
REMARK  209  A    between atoms: _508  and  _510
REMARK  210  A    between atoms: _510  and  _511
REMARK  211  A    between atoms: _510  and  _513
REMARK  212  A    between atoms: _513  and  _514
REMARK  213  A    between atoms: _517  and  _519
REMARK  214  A    between atoms: _519  and  _520
REMARK  215  A    between atoms: _519  and  _522
REMARK  216  A    between atoms: _522  and  _523
REMARK  217  A    between atoms: _526  and  _528
REMARK  218  A    between atoms: _528  and  _529
REMARK  219  A    between atoms: _531  and  _533
REMARK  220  A    between atoms: _533  and  _534
REMARK  221  A    between atoms: _533  and  _536
REMARK  222  A    between atoms: _536  and  _537
REMARK  223  A    between atoms: _537  and  _538
REMARK  224  A    between atoms: _538  and  _539
REMARK                            x       y       z     vdW  Elec       q    Type
REMARK                         _______ _______ _______ _____ _____    ______ ____
ROOT
ATOM      1  O   HOH     1       1.352   2.969   6.067  0.00  0.00    +0.000 OA
ENDROOT
TORSDOF 0
REMARK  Name = ../refined-set-2016/1hih/1hih_pocket.pdb
REMARK  224 active torsions:
REMARK  status: ('A' for Active; 'I' for Inactive)
REMARK    1  A    between atoms: _1  and  _3
REMARK    2  A    between atoms: _3  and  _4
REMARK    3  A    between atoms: _3  and  _6
REMARK    4  A    between atoms: _6  and  _7
REMARK    5  A    between atoms: _7  and  _8
REMARK    6  A    between atoms: _8  and  _9
REMARK    7  A    between atoms: _18  and  _20
REMARK    8  A    between atoms: _20  and  _21
REMARK    9  A    between atoms: _20  and  _23
REMARK   10  A    between atoms: _23  and  _24
REMARK   11  A    between atoms: _27  and  _29
REMARK   12  A    between atoms: _29  and  _30
REMARK   13  A    between atoms: _29  and  _32
REMARK   14  A    between atoms: _32  and  _33
REMARK   15  A    between atoms: _36  and  _38
REMARK   16  A    between atoms: _38  and  _39
REMARK   17  A    between atoms: _38  and  _41
REMARK   18  A    between atoms: _41  and  _42
REMARK   19  A    between atoms: _45  and  _47
REMARK   20  A    between atoms: _47  and  _48
REMARK   21  A    between atoms: _47  and  _50
REMARK   22  A    between atoms: _50  and  _51
REMARK   23  A    between atoms: _54  and  _56
REMARK   24  A    between atoms: _56  and  _57
REMARK   25  A    between atoms: _59  and  _61
REMARK   26  A    between atoms: _61  and  _62
REMARK   27  A    between atoms: _65  and  _67
REMARK   28  A    between atoms: _67  and  _68
REMARK   29  A    between atoms: _67  and  _70
REMARK   30  A    between atoms: _70  and  _71
REMARK   31  A    between atoms: _74  and  _76
REMARK   32  A    between atoms: _76  and  _77
REMARK   33  A    between atoms: _76  and  _79
REMARK   34  A    between atoms: _79  and  _80
REMARK   35  A    between atoms: _83  and  _85
REMARK   36  A    between atoms: _85  and  _86
REMARK   37  A    between atoms: _85  and  _88
REMARK   38  A    between atoms: _88  and  _89
REMARK   39  A    between atoms: _92  and  _94
REMARK   40  A    between atoms: _94  and  _95
REMARK   41  A    between atoms: _94  and  _97
REMARK   42  A    between atoms: _100  and  _102
REMARK   43  A    between atoms: _102  and  _103
REMARK   44  A    between atoms: _102  and  _105
REMARK   45  A    between atoms: _105  and  _106
REMARK   46  A    between atoms: _106  and  _107
REMARK   47  A    between atoms: _107  and  _108
REMARK   48  A    between atoms: _108  and  _109
REMARK   49  A    between atoms: _113  and  _115
REMARK   50  A    between atoms: _115  and  _116
REMARK   51  A    between atoms: _115  and  _118
REMARK   52  A    between atoms: _118  and  _119
REMARK   53  A    between atoms: _122  and  _124
REMARK   54  A    between atoms: _124  and  _125
REMARK   55  A    between atoms: _127  and  _129
REMARK   56  A    between atoms: _129  and  _130
REMARK   57  A    between atoms: _132  and  _134
REMARK   58  A    between atoms: _134  and  _135
REMARK   59  A    between atoms: _134  and  _137
REMARK   60  A    between atoms: _137  and  _138
REMARK   61  A    between atoms: _141  and  _143
REMARK   62  A    between atoms: _143  and  _144
REMARK   63  A    between atoms: _146  and  _148
REMARK   64  A    between atoms: _148  and  _149
REMARK   65  A    between atoms: _151  and  _153
REMARK   66  A    between atoms: _153  and  _154
REMARK   67  A    between atoms: _153  and  _156
REMARK   68  A    between atoms: _156  and  _157
REMARK   69  A    between atoms: _163  and  _165
REMARK   70  A    between atoms: _165  and  _166
REMARK   71  A    between atoms: _165  and  _168
REMARK   72  A    between atoms: _168  and  _169
REMARK   73  A    between atoms: _172  and  _174
REMARK   74  A    between atoms: _174  and  _175
REMARK   75  A    between atoms: _174  and  _177
REMARK   76  A    between atoms: _177  and  _178
REMARK   77  A    between atoms: _181  and  _183
REMARK   78  A    between atoms: _183  and  _184
REMARK   79  A    between atoms: _183  and  _186
REMARK   80  A    between atoms: _186  and  _187
REMARK   81  A    between atoms: _191  and  _192
REMARK   82  A    between atoms: _197  and  _199
REMARK   83  A    between atoms: _199  and  _200
REMARK   84  A    between atoms: _199  and  _202
REMARK   85  A    between atoms: _205  and  _207
REMARK   86  A    between atoms: _207  and  _208
REMARK   87  A    between atoms: _207  and  _210
REMARK   88  A    between atoms: _210  and  _211
REMARK   89  A    between atoms: _216  and  _218
REMARK   90  A    between atoms: _218  and  _219
REMARK   91  A    between atoms: _218  and  _221
REMARK   92  A    between atoms: _221  and  _222
REMARK   93  A    between atoms: _225  and  _227
REMARK   94  A    between atoms: _227  and  _228
REMARK   95  A    between atoms: _227  and  _230
REMARK   96  A    between atoms: _230  and  _231
REMARK   97  A    between atoms: _234  and  _236
REMARK   98  A    between atoms: _236  and  _237
REMARK   99  A    between atoms: _239  and  _241
REMARK  100  A    between atoms: _241  and  _242
REMARK  101  A    between atoms: _241  and  _244
REMARK  102  A    between atoms: _244  and  _245
REMARK  103  A    between atoms: _245  and  _246
REMARK  104  A    between atoms: _246  and  _247
REMARK  105  A    between atoms: _256  and  _258
REMARK  106  A    between atoms: _258  and  _259
REMARK  107  A    between atoms: _258  and  _261
REMARK  108  A    between atoms: _261  and  _262
REMARK  109  A    between atoms: _267  and  _269
REMARK  110  A    between atoms: _269  and  _270
REMARK  111  A    between atoms: _269  and  _272
REMARK  112  A    between atoms: _272  and  _273
REMARK  113  A    between atoms: _273  and  _274
REMARK  114  A    between atoms: _274  and  _275
REMARK  115  A    between atoms: _284  and  _286
REMARK  116  A    between atoms: _286  and  _287
REMARK  117  A    between atoms: _286  and  _289
REMARK  118  A    between atoms: _289  and  _290
REMARK  119  A    between atoms: _293  and  _295
REMARK  120  A    between atoms: _295  and  _296
REMARK  121  A    between atoms: _295  and  _298
REMARK  122  A    between atoms: _298  and  _299
REMARK  123  A    between atoms: _302  and  _304
REMARK  124  A    between atoms: _304  and  _305
REMARK  125  A    between atoms: _304  and  _307
REMARK  126  A    between atoms: _307  and  _308
REMARK  127  A    between atoms: _311  and  _313
REMARK  128  A    between atoms: _313  and  _314
REMARK  129  A    between atoms: _313  and  _316
REMARK  130  A    between atoms: _316  and  _317
REMARK  131  A    between atoms: _320  and  _322
REMARK  132  A    between atoms: _322  and  _323
REMARK  133  A    between atoms: _322  and  _325
REMARK  134  A    between atoms: _325  and  _326
REMARK  135  A    between atoms: _329  and  _331
REMARK  136  A    between atoms: _331  and  _332
REMARK  137  A    between atoms: _334  and  _336
REMARK  138  A    between atoms: _336  and  _337
REMARK  139  A    between atoms: _340  and  _342
REMARK  140  A    between atoms: _342  and  _343
REMARK  141  A    between atoms: _342  and  _345
REMARK  142  A    between atoms: _345  and  _346
REMARK  143  A    between atoms: _349  and  _351
REMARK  144  A    between atoms: _351  and  _352
REMARK  145  A    between atoms: _351  and  _354
REMARK  146  A    between atoms: _354  and  _355
REMARK  147  A    between atoms: _358  and  _360
REMARK  148  A    between atoms: _360  and  _361
REMARK  149  A    between atoms: _360  and  _363
REMARK  150  A    between atoms: _363  and  _364
REMARK  151  A    between atoms: _367  and  _369
REMARK  152  A    between atoms: _369  and  _370
REMARK  153  A    between atoms: _369  and  _372
REMARK  154  A    between atoms: _375  and  _377
REMARK  155  A    between atoms: _377  and  _378
REMARK  156  A    between atoms: _377  and  _380
REMARK  157  A    between atoms: _380  and  _381
REMARK  158  A    between atoms: _381  and  _382
REMARK  159  A    between atoms: _382  and  _383
REMARK  160  A    between atoms: _383  and  _384
REMARK  161  A    between atoms: _388  and  _390
REMARK  162  A    between atoms: _390  and  _391
REMARK  163  A    between atoms: _390  and  _393
REMARK  164  A    between atoms: _393  and  _394
REMARK  165  A    between atoms: _394  and  _395
REMARK  166  A    between atoms: _397  and  _399
REMARK  167  A    between atoms: _399  and  _400
REMARK  168  A    between atoms: _399  and  _402
REMARK  169  A    between atoms: _402  and  _403
REMARK  170  A    between atoms: _406  and  _408
REMARK  171  A    between atoms: _408  and  _409
REMARK  172  A    between atoms: _411  and  _413
REMARK  173  A    between atoms: _413  and  _414
REMARK  174  A    between atoms: _416  and  _418
REMARK  175  A    between atoms: _418  and  _419
REMARK  176  A    between atoms: _418  and  _421
REMARK  177  A    between atoms: _421  and  _422
REMARK  178  A    between atoms: _425  and  _427
REMARK  179  A    between atoms: _427  and  _428
REMARK  180  A    between atoms: _430  and  _432
REMARK  181  A    between atoms: _432  and  _433
REMARK  182  A    between atoms: _435  and  _437
REMARK  183  A    between atoms: _437  and  _438
REMARK  184  A    between atoms: _437  and  _440
REMARK  185  A    between atoms: _440  and  _441
REMARK  186  A    between atoms: _447  and  _449
REMARK  187  A    between atoms: _449  and  _450
REMARK  188  A    between atoms: _449  and  _452
REMARK  189  A    between atoms: _452  and  _453
REMARK  190  A    between atoms: _456  and  _458
REMARK  191  A    between atoms: _458  and  _459
REMARK  192  A    between atoms: _458  and  _461
REMARK  193  A    between atoms: _464  and  _466
REMARK  194  A    between atoms: _466  and  _467
REMARK  195  A    between atoms: _466  and  _469
REMARK  196  A    between atoms: _469  and  _470
REMARK  197  A    between atoms: _473  and  _475
REMARK  198  A    between atoms: _475  and  _476
REMARK  199  A    between atoms: _475  and  _478
REMARK  200  A    between atoms: _478  and  _479
REMARK  201  A    between atoms: _483  and  _484
REMARK  202  A    between atoms: _489  and  _491
REMARK  203  A    between atoms: _491  and  _492
REMARK  204  A    between atoms: _491  and  _494
REMARK  205  A    between atoms: _497  and  _499
REMARK  206  A    between atoms: _499  and  _500
REMARK  207  A    between atoms: _499  and  _502
REMARK  208  A    between atoms: _502  and  _503
REMARK  209  A    between atoms: _508  and  _510
REMARK  210  A    between atoms: _510  and  _511
REMARK  211  A    between atoms: _510  and  _513
REMARK  212  A    between atoms: _513  and  _514
REMARK  213  A    between atoms: _517  and  _519
REMARK  214  A    between atoms: _519  and  _520
REMARK  215  A    between atoms: _519  and  _522
REMARK  216  A    between atoms: _522  and  _523
REMARK  217  A    between atoms: _526  and  _528
REMARK  218  A    between atoms: _528  and  _529
REMARK  219  A    between atoms: _531  and  _533
REMARK  220  A    between atoms: _533  and  _534
REMARK  221  A    between atoms: _533  and  _536
REMARK  222  A    between atoms: _536  and  _537
REMARK  223  A    between atoms: _537  and  _538
REMARK  224  A    between atoms: _538  and  _539
REMARK                            x       y       z     vdW  Elec       q    Type
REMARK                         _______ _______ _______ _____ _____    ______ ____
ROOT
ATOM      1  O   HOH     1      -0.930   9.993  13.183  0.00  0.00    +0.000 OA
ENDROOT
TORSDOF 0
REMARK  Name = ../refined-set-2016/1hih/1hih_pocket.pdb
REMARK  224 active torsions:
REMARK  status: ('A' for Active; 'I' for Inactive)
REMARK    1  A    between atoms: _1  and  _3
REMARK    2  A    between atoms: _3  and  _4
REMARK    3  A    between atoms: _3  and  _6
REMARK    4  A    between atoms: _6  and  _7
REMARK    5  A    between atoms: _7  and  _8
REMARK    6  A    between atoms: _8  and  _9
REMARK    7  A    between atoms: _18  and  _20
REMARK    8  A    between atoms: _20  and  _21
REMARK    9  A    between atoms: _20  and  _23
REMARK   10  A    between atoms: _23  and  _24
REMARK   11  A    between atoms: _27  and  _29
REMARK   12  A    between atoms: _29  and  _30
REMARK   13  A    between atoms: _29  and  _32
REMARK   14  A    between atoms: _32  and  _33
REMARK   15  A    between atoms: _36  and  _38
REMARK   16  A    between atoms: _38  and  _39
REMARK   17  A    between atoms: _38  and  _41
REMARK   18  A    between atoms: _41  and  _42
REMARK   19  A    between atoms: _45  and  _47
REMARK   20  A    between atoms: _47  and  _48
REMARK   21  A    between atoms: _47  and  _50
REMARK   22  A    between atoms: _50  and  _51
REMARK   23  A    between atoms: _54  and  _56
REMARK   24  A    between atoms: _56  and  _57
REMARK   25  A    between atoms: _59  and  _61
REMARK   26  A    between atoms: _61  and  _62
REMARK   27  A    between atoms: _65  and  _67
REMARK   28  A    between atoms: _67  and  _68
REMARK   29  A    between atoms: _67  and  _70
REMARK   30  A    between atoms: _70  and  _71
REMARK   31  A    between atoms: _74  and  _76
REMARK   32  A    between atoms: _76  and  _77
REMARK   33  A    between atoms: _76  and  _79
REMARK   34  A    between atoms: _79  and  _80
REMARK   35  A    between atoms: _83  and  _85
REMARK   36  A    between atoms: _85  and  _86
REMARK   37  A    between atoms: _85  and  _88
REMARK   38  A    between atoms: _88  and  _89
REMARK   39  A    between atoms: _92  and  _94
REMARK   40  A    between atoms: _94  and  _95
REMARK   41  A    between atoms: _94  and  _97
REMARK   42  A    between atoms: _100  and  _102
REMARK   43  A    between atoms: _102  and  _103
REMARK   44  A    between atoms: _102  and  _105
REMARK   45  A    between atoms: _105  and  _106
REMARK   46  A    between atoms: _106  and  _107
REMARK   47  A    between atoms: _107  and  _108
REMARK   48  A    between atoms: _108  and  _109
REMARK   49  A    between atoms: _113  and  _115
REMARK   50  A    between atoms: _115  and  _116
REMARK   51  A    between atoms: _115  and  _118
REMARK   52  A    between atoms: _118  and  _119
REMARK   53  A    between atoms: _122  and  _124
REMARK   54  A    between atoms: _124  and  _125
REMARK   55  A    between atoms: _127  and  _129
REMARK   56  A    between atoms: _129  and  _130
REMARK   57  A    between atoms: _132  and  _134
REMARK   58  A    between atoms: _134  and  _135
REMARK   59  A    between atoms: _134  and  _137
REMARK   60  A    between atoms: _137  and  _138
REMARK   61  A    between atoms: _141  and  _143
REMARK   62  A    between atoms: _143  and  _144
REMARK   63  A    between atoms: _146  and  _148
REMARK   64  A    between atoms: _148  and  _149
REMARK   65  A    between atoms: _151  and  _153
REMARK   66  A    between atoms: _153  and  _154
REMARK   67  A    between atoms: _153  and  _156
REMARK   68  A    between atoms: _156  and  _157
REMARK   69  A    between atoms: _163  and  _165
REMARK   70  A    between atoms: _165  and  _166
REMARK   71  A    between atoms: _165  and  _168
REMARK   72  A    between atoms: _168  and  _169
REMARK   73  A    between atoms: _172  and  _174
REMARK   74  A    between atoms: _174  and  _175
REMARK   75  A    between atoms: _174  and  _177
REMARK   76  A    between atoms: _177  and  _178
REMARK   77  A    between atoms: _181  and  _183
REMARK   78  A    between atoms: _183  and  _184
REMARK   79  A    between atoms: _183  and  _186
REMARK   80  A    between atoms: _186  and  _187
REMARK   81  A    between atoms: _191  and  _192
REMARK   82  A    between atoms: _197  and  _199
REMARK   83  A    between atoms: _199  and  _200
REMARK   84  A    between atoms: _199  and  _202
REMARK   85  A    between atoms: _205  and  _207
REMARK   86  A    between atoms: _207  and  _208
REMARK   87  A    between atoms: _207  and  _210
REMARK   88  A    between atoms: _210  and  _211
REMARK   89  A    between atoms: _216  and  _218
REMARK   90  A    between atoms: _218  and  _219
REMARK   91  A    between atoms: _218  and  _221
REMARK   92  A    between atoms: _221  and  _222
REMARK   93  A    between atoms: _225  and  _227
REMARK   94  A    between atoms: _227  and  _228
REMARK   95  A    between atoms: _227  and  _230
REMARK   96  A    between atoms: _230  and  _231
REMARK   97  A    between atoms: _234  and  _236
REMARK   98  A    between atoms: _236  and  _237
REMARK   99  A    between atoms: _239  and  _241
REMARK  100  A    between atoms: _241  and  _242
REMARK  101  A    between atoms: _241  and  _244
REMARK  102  A    between atoms: _244  and  _245
REMARK  103  A    between atoms: _245  and  _246
REMARK  104  A    between atoms: _246  and  _247
REMARK  105  A    between atoms: _256  and  _258
REMARK  106  A    between atoms: _258  and  _259
REMARK  107  A    between atoms: _258  and  _261
REMARK  108  A    between atoms: _261  and  _262
REMARK  109  A    between atoms: _267  and  _269
REMARK  110  A    between atoms: _269  and  _270
REMARK  111  A    between atoms: _269  and  _272
REMARK  112  A    between atoms: _272  and  _273
REMARK  113  A    between atoms: _273  and  _274
REMARK  114  A    between atoms: _274  and  _275
REMARK  115  A    between atoms: _284  and  _286
REMARK  116  A    between atoms: _286  and  _287
REMARK  117  A    between atoms: _286  and  _289
REMARK  118  A    between atoms: _289  and  _290
REMARK  119  A    between atoms: _293  and  _295
REMARK  120  A    between atoms: _295  and  _296
REMARK  121  A    between atoms: _295  and  _298
REMARK  122  A    between atoms: _298  and  _299
REMARK  123  A    between atoms: _302  and  _304
REMARK  124  A    between atoms: _304  and  _305
REMARK  125  A    between atoms: _304  and  _307
REMARK  126  A    between atoms: _307  and  _308
REMARK  127  A    between atoms: _311  and  _313
REMARK  128  A    between atoms: _313  and  _314
REMARK  129  A    between atoms: _313  and  _316
REMARK  130  A    between atoms: _316  and  _317
REMARK  131  A    between atoms: _320  and  _322
REMARK  132  A    between atoms: _322  and  _323
REMARK  133  A    between atoms: _322  and  _325
REMARK  134  A    between atoms: _325  and  _326
REMARK  135  A    between atoms: _329  and  _331
REMARK  136  A    between atoms: _331  and  _332
REMARK  137  A    between atoms: _334  and  _336
REMARK  138  A    between atoms: _336  and  _337
REMARK  139  A    between atoms: _340  and  _342
REMARK  140  A    between atoms: _342  and  _343
REMARK  141  A    between atoms: _342  and  _345
REMARK  142  A    between atoms: _345  and  _346
REMARK  143  A    between atoms: _349  and  _351
REMARK  144  A    between atoms: _351  and  _352
REMARK  145  A    between atoms: _351  and  _354
REMARK  146  A    between atoms: _354  and  _355
REMARK  147  A    between atoms: _358  and  _360
REMARK  148  A    between atoms: _360  and  _361
REMARK  149  A    between atoms: _360  and  _363
REMARK  150  A    between atoms: _363  and  _364
REMARK  151  A    between atoms: _367  and  _369
REMARK  152  A    between atoms: _369  and  _370
REMARK  153  A    between atoms: _369  and  _372
REMARK  154  A    between atoms: _375  and  _377
REMARK  155  A    between atoms: _377  and  _378
REMARK  156  A    between atoms: _377  and  _380
REMARK  157  A    between atoms: _380  and  _381
REMARK  158  A    between atoms: _381  and  _382
REMARK  159  A    between atoms: _382  and  _383
REMARK  160  A    between atoms: _383  and  _384
REMARK  161  A    between atoms: _388  and  _390
REMARK  162  A    between atoms: _390  and  _391
REMARK  163  A    between atoms: _390  and  _393
REMARK  164  A    between atoms: _393  and  _394
REMARK  165  A    between atoms: _394  and  _395
REMARK  166  A    between atoms: _397  and  _399
REMARK  167  A    between atoms: _399  and  _400
REMARK  168  A    between atoms: _399  and  _402
REMARK  169  A    between atoms: _402  and  _403
REMARK  170  A    between atoms: _406  and  _408
REMARK  171  A    between atoms: _408  and  _409
REMARK  172  A    between atoms: _411  and  _413
REMARK  173  A    between atoms: _413  and  _414
REMARK  174  A    between atoms: _416  and  _418
REMARK  175  A    between atoms: _418  and  _419
REMARK  176  A    between atoms: _418  and  _421
REMARK  177  A    between atoms: _421  and  _422
REMARK  178  A    between atoms: _425  and  _427
REMARK  179  A    between atoms: _427  and  _428
REMARK  180  A    between atoms: _430  and  _432
REMARK  181  A    between atoms: _432  and  _433
REMARK  182  A    between atoms: _435  and  _437
REMARK  183  A    between atoms: _437  and  _438
REMARK  184  A    between atoms: _437  and  _440
REMARK  185  A    between atoms: _440  and  _441
REMARK  186  A    between atoms: _447  and  _449
REMARK  187  A    between atoms: _449  and  _450
REMARK  188  A    between atoms: _449  and  _452
REMARK  189  A    between atoms: _452  and  _453
REMARK  190  A    between atoms: _456  and  _458
REMARK  191  A    between atoms: _458  and  _459
REMARK  192  A    between atoms: _458  and  _461
REMARK  193  A    between atoms: _464  and  _466
REMARK  194  A    between atoms: _466  and  _467
REMARK  195  A    between atoms: _466  and  _469
REMARK  196  A    between atoms: _469  and  _470
REMARK  197  A    between atoms: _473  and  _475
REMARK  198  A    between atoms: _475  and  _476
REMARK  199  A    between atoms: _475  and  _478
REMARK  200  A    between atoms: _478  and  _479
REMARK  201  A    between atoms: _483  and  _484
REMARK  202  A    between atoms: _489  and  _491
REMARK  203  A    between atoms: _491  and  _492
REMARK  204  A    between atoms: _491  and  _494
REMARK  205  A    between atoms: _497  and  _499
REMARK  206  A    between atoms: _499  and  _500
REMARK  207  A    between atoms: _499  and  _502
REMARK  208  A    between atoms: _502  and  _503
REMARK  209  A    between atoms: _508  and  _510
REMARK  210  A    between atoms: _510  and  _511
REMARK  211  A    between atoms: _510  and  _513
REMARK  212  A    between atoms: _513  and  _514
REMARK  213  A    between atoms: _517  and  _519
REMARK  214  A    between atoms: _519  and  _520
REMARK  215  A    between atoms: _519  and  _522
REMARK  216  A    between atoms: _522  and  _523
REMARK  217  A    between atoms: _526  and  _528
REMARK  218  A    between atoms: _528  and  _529
REMARK  219  A    between atoms: _531  and  _533
REMARK  220  A    between atoms: _533  and  _534
REMARK  221  A    between atoms: _533  and  _536
REMARK  222  A    between atoms: _536  and  _537
REMARK  223  A    between atoms: _537  and  _538
REMARK  224  A    between atoms: _538  and  _539
REMARK                            x       y       z     vdW  Elec       q    Type
REMARK                         _______ _______ _______ _____ _____    ______ ____
ROOT
ATOM      1  O   HOH     1      -5.397   7.355  10.874  0.00  0.00    +0.000 OA
ENDROOT
TORSDOF 0
REMARK  Name = ../refined-set-2016/1hih/1hih_pocket.pdb
REMARK  224 active torsions:
REMARK  status: ('A' for Active; 'I' for Inactive)
REMARK    1  A    between atoms: _1  and  _3
REMARK    2  A    between atoms: _3  and  _4
REMARK    3  A    between atoms: _3  and  _6
REMARK    4  A    between atoms: _6  and  _7
REMARK    5  A    between atoms: _7  and  _8
REMARK    6  A    between atoms: _8  and  _9
REMARK    7  A    between atoms: _18  and  _20
REMARK    8  A    between atoms: _20  and  _21
REMARK    9  A    between atoms: _20  and  _23
REMARK   10  A    between atoms: _23  and  _24
REMARK   11  A    between atoms: _27  and  _29
REMARK   12  A    between atoms: _29  and  _30
REMARK   13  A    between atoms: _29  and  _32
REMARK   14  A    between atoms: _32  and  _33
REMARK   15  A    between atoms: _36  and  _38
REMARK   16  A    between atoms: _38  and  _39
REMARK   17  A    between atoms: _38  and  _41
REMARK   18  A    between atoms: _41  and  _42
REMARK   19  A    between atoms: _45  and  _47
REMARK   20  A    between atoms: _47  and  _48
REMARK   21  A    between atoms: _47  and  _50
REMARK   22  A    between atoms: _50  and  _51
REMARK   23  A    between atoms: _54  and  _56
REMARK   24  A    between atoms: _56  and  _57
REMARK   25  A    between atoms: _59  and  _61
REMARK   26  A    between atoms: _61  and  _62
REMARK   27  A    between atoms: _65  and  _67
REMARK   28  A    between atoms: _67  and  _68
REMARK   29  A    between atoms: _67  and  _70
REMARK   30  A    between atoms: _70  and  _71
REMARK   31  A    between atoms: _74  and  _76
REMARK   32  A    between atoms: _76  and  _77
REMARK   33  A    between atoms: _76  and  _79
REMARK   34  A    between atoms: _79  and  _80
REMARK   35  A    between atoms: _83  and  _85
REMARK   36  A    between atoms: _85  and  _86
REMARK   37  A    between atoms: _85  and  _88
REMARK   38  A    between atoms: _88  and  _89
REMARK   39  A    between atoms: _92  and  _94
REMARK   40  A    between atoms: _94  and  _95
REMARK   41  A    between atoms: _94  and  _97
REMARK   42  A    between atoms: _100  and  _102
REMARK   43  A    between atoms: _102  and  _103
REMARK   44  A    between atoms: _102  and  _105
REMARK   45  A    between atoms: _105  and  _106
REMARK   46  A    between atoms: _106  and  _107
REMARK   47  A    between atoms: _107  and  _108
REMARK   48  A    between atoms: _108  and  _109
REMARK   49  A    between atoms: _113  and  _115
REMARK   50  A    between atoms: _115  and  _116
REMARK   51  A    between atoms: _115  and  _118
REMARK   52  A    between atoms: _118  and  _119
REMARK   53  A    between atoms: _122  and  _124
REMARK   54  A    between atoms: _124  and  _125
REMARK   55  A    between atoms: _127  and  _129
REMARK   56  A    between atoms: _129  and  _130
REMARK   57  A    between atoms: _132  and  _134
REMARK   58  A    between atoms: _134  and  _135
REMARK   59  A    between atoms: _134  and  _137
REMARK   60  A    between atoms: _137  and  _138
REMARK   61  A    between atoms: _141  and  _143
REMARK   62  A    between atoms: _143  and  _144
REMARK   63  A    between atoms: _146  and  _148
REMARK   64  A    between atoms: _148  and  _149
REMARK   65  A    between atoms: _151  and  _153
REMARK   66  A    between atoms: _153  and  _154
REMARK   67  A    between atoms: _153  and  _156
REMARK   68  A    between atoms: _156  and  _157
REMARK   69  A    between atoms: _163  and  _165
REMARK   70  A    between atoms: _165  and  _166
REMARK   71  A    between atoms: _165  and  _168
REMARK   72  A    between atoms: _168  and  _169
REMARK   73  A    between atoms: _172  and  _174
REMARK   74  A    between atoms: _174  and  _175
REMARK   75  A    between atoms: _174  and  _177
REMARK   76  A    between atoms: _177  and  _178
REMARK   77  A    between atoms: _181  and  _183
REMARK   78  A    between atoms: _183  and  _184
REMARK   79  A    between atoms: _183  and  _186
REMARK   80  A    between atoms: _186  and  _187
REMARK   81  A    between atoms: _191  and  _192
REMARK   82  A    between atoms: _197  and  _199
REMARK   83  A    between atoms: _199  and  _200
REMARK   84  A    between atoms: _199  and  _202
REMARK   85  A    between atoms: _205  and  _207
REMARK   86  A    between atoms: _207  and  _208
REMARK   87  A    between atoms: _207  and  _210
REMARK   88  A    between atoms: _210  and  _211
REMARK   89  A    between atoms: _216  and  _218
REMARK   90  A    between atoms: _218  and  _219
REMARK   91  A    between atoms: _218  and  _221
REMARK   92  A    between atoms: _221  and  _222
REMARK   93  A    between atoms: _225  and  _227
REMARK   94  A    between atoms: _227  and  _228
REMARK   95  A    between atoms: _227  and  _230
REMARK   96  A    between atoms: _230  and  _231
REMARK   97  A    between atoms: _234  and  _236
REMARK   98  A    between atoms: _236  and  _237
REMARK   99  A    between atoms: _239  and  _241
REMARK  100  A    between atoms: _241  and  _242
REMARK  101  A    between atoms: _241  and  _244
REMARK  102  A    between atoms: _244  and  _245
REMARK  103  A    between atoms: _245  and  _246
REMARK  104  A    between atoms: _246  and  _247
REMARK  105  A    between atoms: _256  and  _258
REMARK  106  A    between atoms: _258  and  _259
REMARK  107  A    between atoms: _258  and  _261
REMARK  108  A    between atoms: _261  and  _262
REMARK  109  A    between atoms: _267  and  _269
REMARK  110  A    between atoms: _269  and  _270
REMARK  111  A    between atoms: _269  and  _272
REMARK  112  A    between atoms: _272  and  _273
REMARK  113  A    between atoms: _273  and  _274
REMARK  114  A    between atoms: _274  and  _275
REMARK  115  A    between atoms: _284  and  _286
REMARK  116  A    between atoms: _286  and  _287
REMARK  117  A    between atoms: _286  and  _289
REMARK  118  A    between atoms: _289  and  _290
REMARK  119  A    between atoms: _293  and  _295
REMARK  120  A    between atoms: _295  and  _296
REMARK  121  A    between atoms: _295  and  _298
REMARK  122  A    between atoms: _298  and  _299
REMARK  123  A    between atoms: _302  and  _304
REMARK  124  A    between atoms: _304  and  _305
REMARK  125  A    between atoms: _304  and  _307
REMARK  126  A    between atoms: _307  and  _308
REMARK  127  A    between atoms: _311  and  _313
REMARK  128  A    between atoms: _313  and  _314
REMARK  129  A    between atoms: _313  and  _316
REMARK  130  A    between atoms: _316  and  _317
REMARK  131  A    between atoms: _320  and  _322
REMARK  132  A    between atoms: _322  and  _323
REMARK  133  A    between atoms: _322  and  _325
REMARK  134  A    between atoms: _325  and  _326
REMARK  135  A    between atoms: _329  and  _331
REMARK  136  A    between atoms: _331  and  _332
REMARK  137  A    between atoms: _334  and  _336
REMARK  138  A    between atoms: _336  and  _337
REMARK  139  A    between atoms: _340  and  _342
REMARK  140  A    between atoms: _342  and  _343
REMARK  141  A    between atoms: _342  and  _345
REMARK  142  A    between atoms: _345  and  _346
REMARK  143  A    between atoms: _349  and  _351
REMARK  144  A    between atoms: _351  and  _352
REMARK  145  A    between atoms: _351  and  _354
REMARK  146  A    between atoms: _354  and  _355
REMARK  147  A    between atoms: _358  and  _360
REMARK  148  A    between atoms: _360  and  _361
REMARK  149  A    between atoms: _360  and  _363
REMARK  150  A    between atoms: _363  and  _364
REMARK  151  A    between atoms: _367  and  _369
REMARK  152  A    between atoms: _369  and  _370
REMARK  153  A    between atoms: _369  and  _372
REMARK  154  A    between atoms: _375  and  _377
REMARK  155  A    between atoms: _377  and  _378
REMARK  156  A    between atoms: _377  and  _380
REMARK  157  A    between atoms: _380  and  _381
REMARK  158  A    between atoms: _381  and  _382
REMARK  159  A    between atoms: _382  and  _383
REMARK  160  A    between atoms: _383  and  _384
REMARK  161  A    between atoms: _388  and  _390
REMARK  162  A    between atoms: _390  and  _391
REMARK  163  A    between atoms: _390  and  _393
REMARK  164  A    between atoms: _393  and  _394
REMARK  165  A    between atoms: _394  and  _395
REMARK  166  A    between atoms: _397  and  _399
REMARK  167  A    between atoms: _399  and  _400
REMARK  168  A    between atoms: _399  and  _402
REMARK  169  A    between atoms: _402  and  _403
REMARK  170  A    between atoms: _406  and  _408
REMARK  171  A    between atoms: _408  and  _409
REMARK  172  A    between atoms: _411  and  _413
REMARK  173  A    between atoms: _413  and  _414
REMARK  174  A    between atoms: _416  and  _418
REMARK  175  A    between atoms: _418  and  _419
REMARK  176  A    between atoms: _418  and  _421
REMARK  177  A    between atoms: _421  and  _422
REMARK  178  A    between atoms: _425  and  _427
REMARK  179  A    between atoms: _427  and  _428
REMARK  180  A    between atoms: _430  and  _432
REMARK  181  A    between atoms: _432  and  _433
REMARK  182  A    between atoms: _435  and  _437
REMARK  183  A    between atoms: _437  and  _438
REMARK  184  A    between atoms: _437  and  _440
REMARK  185  A    between atoms: _440  and  _441
REMARK  186  A    between atoms: _447  and  _449
REMARK  187  A    between atoms: _449  and  _450
REMARK  188  A    between atoms: _449  and  _452
REMARK  189  A    between atoms: _452  and  _453
REMARK  190  A    between atoms: _456  and  _458
REMARK  191  A    between atoms: _458  and  _459
REMARK  192  A    between atoms: _458  and  _461
REMARK  193  A    between atoms: _464  and  _466
REMARK  194  A    between atoms: _466  and  _467
REMARK  195  A    between atoms: _466  and  _469
REMARK  196  A    between atoms: _469  and  _470
REMARK  197  A    between atoms: _473  and  _475
REMARK  198  A    between atoms: _475  and  _476
REMARK  199  A    between atoms: _475  and  _478
REMARK  200  A    between atoms: _478  and  _479
REMARK  201  A    between atoms: _483  and  _484
REMARK  202  A    between atoms: _489  and  _491
REMARK  203  A    between atoms: _491  and  _492
REMARK  204  A    between atoms: _491  and  _494
REMARK  205  A    between atoms: _497  and  _499
REMARK  206  A    between atoms: _499  and  _500
REMARK  207  A    between atoms: _499  and  _502
REMARK  208  A    between atoms: _502  and  _503
REMARK  209  A    between atoms: _508  and  _510
REMARK  210  A    between atoms: _510  and  _511
REMARK  211  A    between atoms: _510  and  _513
REMARK  212  A    between atoms: _513  and  _514
REMARK  213  A    between atoms: _517  and  _519
REMARK  214  A    between atoms: _519  and  _520
REMARK  215  A    between atoms: _519  and  _522
REMARK  216  A    between atoms: _522  and  _523
REMARK  217  A    between atoms: _526  and  _528
REMARK  218  A    between atoms: _528  and  _529
REMARK  219  A    between atoms: _531  and  _533
REMARK  220  A    between atoms: _533  and  _534
REMARK  221  A    between atoms: _533  and  _536
REMARK  222  A    between atoms: _536  and  _537
REMARK  223  A    between atoms: _537  and  _538
REMARK  224  A    between atoms: _538  and  _539
REMARK                            x       y       z     vdW  Elec       q    Type
REMARK                         _______ _______ _______ _____ _____    ______ ____
ROOT
ATOM      1  O   HOH     1       0.357   4.692   8.055  0.00  0.00    +0.000 OA
ENDROOT
TORSDOF 0
REMARK  Name = ../refined-set-2016/1hih/1hih_pocket.pdb
REMARK  224 active torsions:
REMARK  status: ('A' for Active; 'I' for Inactive)
REMARK    1  A    between atoms: _1  and  _3
REMARK    2  A    between atoms: _3  and  _4
REMARK    3  A    between atoms: _3  and  _6
REMARK    4  A    between atoms: _6  and  _7
REMARK    5  A    between atoms: _7  and  _8
REMARK    6  A    between atoms: _8  and  _9
REMARK    7  A    between atoms: _18  and  _20
REMARK    8  A    between atoms: _20  and  _21
REMARK    9  A    between atoms: _20  and  _23
REMARK   10  A    between atoms: _23  and  _24
REMARK   11  A    between atoms: _27  and  _29
REMARK   12  A    between atoms: _29  and  _30
REMARK   13  A    between atoms: _29  and  _32
REMARK   14  A    between atoms: _32  and  _33
REMARK   15  A    between atoms: _36  and  _38
REMARK   16  A    between atoms: _38  and  _39
REMARK   17  A    between atoms: _38  and  _41
REMARK   18  A    between atoms: _41  and  _42
REMARK   19  A    between atoms: _45  and  _47
REMARK   20  A    between atoms: _47  and  _48
REMARK   21  A    between atoms: _47  and  _50
REMARK   22  A    between atoms: _50  and  _51
REMARK   23  A    between atoms: _54  and  _56
REMARK   24  A    between atoms: _56  and  _57
REMARK   25  A    between atoms: _59  and  _61
REMARK   26  A    between atoms: _61  and  _62
REMARK   27  A    between atoms: _65  and  _67
REMARK   28  A    between atoms: _67  and  _68
REMARK   29  A    between atoms: _67  and  _70
REMARK   30  A    between atoms: _70  and  _71
REMARK   31  A    between atoms: _74  and  _76
REMARK   32  A    between atoms: _76  and  _77
REMARK   33  A    between atoms: _76  and  _79
REMARK   34  A    between atoms: _79  and  _80
REMARK   35  A    between atoms: _83  and  _85
REMARK   36  A    between atoms: _85  and  _86
REMARK   37  A    between atoms: _85  and  _88
REMARK   38  A    between atoms: _88  and  _89
REMARK   39  A    between atoms: _92  and  _94
REMARK   40  A    between atoms: _94  and  _95
REMARK   41  A    between atoms: _94  and  _97
REMARK   42  A    between atoms: _100  and  _102
REMARK   43  A    between atoms: _102  and  _103
REMARK   44  A    between atoms: _102  and  _105
REMARK   45  A    between atoms: _105  and  _106
REMARK   46  A    between atoms: _106  and  _107
REMARK   47  A    between atoms: _107  and  _108
REMARK   48  A    between atoms: _108  and  _109
REMARK   49  A    between atoms: _113  and  _115
REMARK   50  A    between atoms: _115  and  _116
REMARK   51  A    between atoms: _115  and  _118
REMARK   52  A    between atoms: _118  and  _119
REMARK   53  A    between atoms: _122  and  _124
REMARK   54  A    between atoms: _124  and  _125
REMARK   55  A    between atoms: _127  and  _129
REMARK   56  A    between atoms: _129  and  _130
REMARK   57  A    between atoms: _132  and  _134
REMARK   58  A    between atoms: _134  and  _135
REMARK   59  A    between atoms: _134  and  _137
REMARK   60  A    between atoms: _137  and  _138
REMARK   61  A    between atoms: _141  and  _143
REMARK   62  A    between atoms: _143  and  _144
REMARK   63  A    between atoms: _146  and  _148
REMARK   64  A    between atoms: _148  and  _149
REMARK   65  A    between atoms: _151  and  _153
REMARK   66  A    between atoms: _153  and  _154
REMARK   67  A    between atoms: _153  and  _156
REMARK   68  A    between atoms: _156  and  _157
REMARK   69  A    between atoms: _163  and  _165
REMARK   70  A    between atoms: _165  and  _166
REMARK   71  A    between atoms: _165  and  _168
REMARK   72  A    between atoms: _168  and  _169
REMARK   73  A    between atoms: _172  and  _174
REMARK   74  A    between atoms: _174  and  _175
REMARK   75  A    between atoms: _174  and  _177
REMARK   76  A    between atoms: _177  and  _178
REMARK   77  A    between atoms: _181  and  _183
REMARK   78  A    between atoms: _183  and  _184
REMARK   79  A    between atoms: _183  and  _186
REMARK   80  A    between atoms: _186  and  _187
REMARK   81  A    between atoms: _191  and  _192
REMARK   82  A    between atoms: _197  and  _199
REMARK   83  A    between atoms: _199  and  _200
REMARK   84  A    between atoms: _199  and  _202
REMARK   85  A    between atoms: _205  and  _207
REMARK   86  A    between atoms: _207  and  _208
REMARK   87  A    between atoms: _207  and  _210
REMARK   88  A    between atoms: _210  and  _211
REMARK   89  A    between atoms: _216  and  _218
REMARK   90  A    between atoms: _218  and  _219
REMARK   91  A    between atoms: _218  and  _221
REMARK   92  A    between atoms: _221  and  _222
REMARK   93  A    between atoms: _225  and  _227
REMARK   94  A    between atoms: _227  and  _228
REMARK   95  A    between atoms: _227  and  _230
REMARK   96  A    between atoms: _230  and  _231
REMARK   97  A    between atoms: _234  and  _236
REMARK   98  A    between atoms: _236  and  _237
REMARK   99  A    between atoms: _239  and  _241
REMARK  100  A    between atoms: _241  and  _242
REMARK  101  A    between atoms: _241  and  _244
REMARK  102  A    between atoms: _244  and  _245
REMARK  103  A    between atoms: _245  and  _246
REMARK  104  A    between atoms: _246  and  _247
REMARK  105  A    between atoms: _256  and  _258
REMARK  106  A    between atoms: _258  and  _259
REMARK  107  A    between atoms: _258  and  _261
REMARK  108  A    between atoms: _261  and  _262
REMARK  109  A    between atoms: _267  and  _269
REMARK  110  A    between atoms: _269  and  _270
REMARK  111  A    between atoms: _269  and  _272
REMARK  112  A    between atoms: _272  and  _273
REMARK  113  A    between atoms: _273  and  _274
REMARK  114  A    between atoms: _274  and  _275
REMARK  115  A    between atoms: _284  and  _286
REMARK  116  A    between atoms: _286  and  _287
REMARK  117  A    between atoms: _286  and  _289
REMARK  118  A    between atoms: _289  and  _290
REMARK  119  A    between atoms: _293  and  _295
REMARK  120  A    between atoms: _295  and  _296
REMARK  121  A    between atoms: _295  and  _298
REMARK  122  A    between atoms: _298  and  _299
REMARK  123  A    between atoms: _302  and  _304
REMARK  124  A    between atoms: _304  and  _305
REMARK  125  A    between atoms: _304  and  _307
REMARK  126  A    between atoms: _307  and  _308
REMARK  127  A    between atoms: _311  and  _313
REMARK  128  A    between atoms: _313  and  _314
REMARK  129  A    between atoms: _313  and  _316
REMARK  130  A    between atoms: _316  and  _317
REMARK  131  A    between atoms: _320  and  _322
REMARK  132  A    between atoms: _322  and  _323
REMARK  133  A    between atoms: _322  and  _325
REMARK  134  A    between atoms: _325  and  _326
REMARK  135  A    between atoms: _329  and  _331
REMARK  136  A    between atoms: _331  and  _332
REMARK  137  A    between atoms: _334  and  _336
REMARK  138  A    between atoms: _336  and  _337
REMARK  139  A    between atoms: _340  and  _342
REMARK  140  A    between atoms: _342  and  _343
REMARK  141  A    between atoms: _342  and  _345
REMARK  142  A    between atoms: _345  and  _346
REMARK  143  A    between atoms: _349  and  _351
REMARK  144  A    between atoms: _351  and  _352
REMARK  145  A    between atoms: _351  and  _354
REMARK  146  A    between atoms: _354  and  _355
REMARK  147  A    between atoms: _358  and  _360
REMARK  148  A    between atoms: _360  and  _361
REMARK  149  A    between atoms: _360  and  _363
REMARK  150  A    between atoms: _363  and  _364
REMARK  151  A    between atoms: _367  and  _369
REMARK  152  A    between atoms: _369  and  _370
REMARK  153  A    between atoms: _369  and  _372
REMARK  154  A    between atoms: _375  and  _377
REMARK  155  A    between atoms: _377  and  _378
REMARK  156  A    between atoms: _377  and  _380
REMARK  157  A    between atoms: _380  and  _381
REMARK  158  A    between atoms: _381  and  _382
REMARK  159  A    between atoms: _382  and  _383
REMARK  160  A    between atoms: _383  and  _384
REMARK  161  A    between atoms: _388  and  _390
REMARK  162  A    between atoms: _390  and  _391
REMARK  163  A    between atoms: _390  and  _393
REMARK  164  A    between atoms: _393  and  _394
REMARK  165  A    between atoms: _394  and  _395
REMARK  166  A    between atoms: _397  and  _399
REMARK  167  A    between atoms: _399  and  _400
REMARK  168  A    between atoms: _399  and  _402
REMARK  169  A    between atoms: _402  and  _403
REMARK  170  A    between atoms: _406  and  _408
REMARK  171  A    between atoms: _408  and  _409
REMARK  172  A    between atoms: _411  and  _413
REMARK  173  A    between atoms: _413  and  _414
REMARK  174  A    between atoms: _416  and  _418
REMARK  175  A    between atoms: _418  and  _419
REMARK  176  A    between atoms: _418  and  _421
REMARK  177  A    between atoms: _421  and  _422
REMARK  178  A    between atoms: _425  and  _427
REMARK  179  A    between atoms: _427  and  _428
REMARK  180  A    between atoms: _430  and  _432
REMARK  181  A    between atoms: _432  and  _433
REMARK  182  A    between atoms: _435  and  _437
REMARK  183  A    between atoms: _437  and  _438
REMARK  184  A    between atoms: _437  and  _440
REMARK  185  A    between atoms: _440  and  _441
REMARK  186  A    between atoms: _447  and  _449
REMARK  187  A    between atoms: _449  and  _450
REMARK  188  A    between atoms: _449  and  _452
REMARK  189  A    between atoms: _452  and  _453
REMARK  190  A    between atoms: _456  and  _458
REMARK  191  A    between atoms: _458  and  _459
REMARK  192  A    between atoms: _458  and  _461
REMARK  193  A    between atoms: _464  and  _466
REMARK  194  A    between atoms: _466  and  _467
REMARK  195  A    between atoms: _466  and  _469
REMARK  196  A    between atoms: _469  and  _470
REMARK  197  A    between atoms: _473  and  _475
REMARK  198  A    between atoms: _475  and  _476
REMARK  199  A    between atoms: _475  and  _478
REMARK  200  A    between atoms: _478  and  _479
REMARK  201  A    between atoms: _483  and  _484
REMARK  202  A    between atoms: _489  and  _491
REMARK  203  A    between atoms: _491  and  _492
REMARK  204  A    between atoms: _491  and  _494
REMARK  205  A    between atoms: _497  and  _499
REMARK  206  A    between atoms: _499  and  _500
REMARK  207  A    between atoms: _499  and  _502
REMARK  208  A    between atoms: _502  and  _503
REMARK  209  A    between atoms: _508  and  _510
REMARK  210  A    between atoms: _510  and  _511
REMARK  211  A    between atoms: _510  and  _513
REMARK  212  A    between atoms: _513  and  _514
REMARK  213  A    between atoms: _517  and  _519
REMARK  214  A    between atoms: _519  and  _520
REMARK  215  A    between atoms: _519  and  _522
REMARK  216  A    between atoms: _522  and  _523
REMARK  217  A    between atoms: _526  and  _528
REMARK  218  A    between atoms: _528  and  _529
REMARK  219  A    between atoms: _531  and  _533
REMARK  220  A    between atoms: _533  and  _534
REMARK  221  A    between atoms: _533  and  _536
REMARK  222  A    between atoms: _536  and  _537
REMARK  223  A    between atoms: _537  and  _538
REMARK  224  A    between atoms: _538  and  _539
REMARK                            x       y       z     vdW  Elec       q    Type
REMARK                         _______ _______ _______ _____ _____    ______ ____
ROOT
ATOM      1  O   HOH     1       2.849 -10.366  19.047  0.00  0.00    +0.000 OA
ENDROOT
TORSDOF 0
REMARK  Name = ../refined-set-2016/1hih/1hih_pocket.pdb
REMARK  224 active torsions:
REMARK  status: ('A' for Active; 'I' for Inactive)
REMARK    1  A    between atoms: _1  and  _3
REMARK    2  A    between atoms: _3  and  _4
REMARK    3  A    between atoms: _3  and  _6
REMARK    4  A    between atoms: _6  and  _7
REMARK    5  A    between atoms: _7  and  _8
REMARK    6  A    between atoms: _8  and  _9
REMARK    7  A    between atoms: _18  and  _20
REMARK    8  A    between atoms: _20  and  _21
REMARK    9  A    between atoms: _20  and  _23
REMARK   10  A    between atoms: _23  and  _24
REMARK   11  A    between atoms: _27  and  _29
REMARK   12  A    between atoms: _29  and  _30
REMARK   13  A    between atoms: _29  and  _32
REMARK   14  A    between atoms: _32  and  _33
REMARK   15  A    between atoms: _36  and  _38
REMARK   16  A    between atoms: _38  and  _39
REMARK   17  A    between atoms: _38  and  _41
REMARK   18  A    between atoms: _41  and  _42
REMARK   19  A    between atoms: _45  and  _47
REMARK   20  A    between atoms: _47  and  _48
REMARK   21  A    between atoms: _47  and  _50
REMARK   22  A    between atoms: _50  and  _51
REMARK   23  A    between atoms: _54  and  _56
REMARK   24  A    between atoms: _56  and  _57
REMARK   25  A    between atoms: _59  and  _61
REMARK   26  A    between atoms: _61  and  _62
REMARK   27  A    between atoms: _65  and  _67
REMARK   28  A    between atoms: _67  and  _68
REMARK   29  A    between atoms: _67  and  _70
REMARK   30  A    between atoms: _70  and  _71
REMARK   31  A    between atoms: _74  and  _76
REMARK   32  A    between atoms: _76  and  _77
REMARK   33  A    between atoms: _76  and  _79
REMARK   34  A    between atoms: _79  and  _80
REMARK   35  A    between atoms: _83  and  _85
REMARK   36  A    between atoms: _85  and  _86
REMARK   37  A    between atoms: _85  and  _88
REMARK   38  A    between atoms: _88  and  _89
REMARK   39  A    between atoms: _92  and  _94
REMARK   40  A    between atoms: _94  and  _95
REMARK   41  A    between atoms: _94  and  _97
REMARK   42  A    between atoms: _100  and  _102
REMARK   43  A    between atoms: _102  and  _103
REMARK   44  A    between atoms: _102  and  _105
REMARK   45  A    between atoms: _105  and  _106
REMARK   46  A    between atoms: _106  and  _107
REMARK   47  A    between atoms: _107  and  _108
REMARK   48  A    between atoms: _108  and  _109
REMARK   49  A    between atoms: _113  and  _115
REMARK   50  A    between atoms: _115  and  _116
REMARK   51  A    between atoms: _115  and  _118
REMARK   52  A    between atoms: _118  and  _119
REMARK   53  A    between atoms: _122  and  _124
REMARK   54  A    between atoms: _124  and  _125
REMARK   55  A    between atoms: _127  and  _129
REMARK   56  A    between atoms: _129  and  _130
REMARK   57  A    between atoms: _132  and  _134
REMARK   58  A    between atoms: _134  and  _135
REMARK   59  A    between atoms: _134  and  _137
REMARK   60  A    between atoms: _137  and  _138
REMARK   61  A    between atoms: _141  and  _143
REMARK   62  A    between atoms: _143  and  _144
REMARK   63  A    between atoms: _146  and  _148
REMARK   64  A    between atoms: _148  and  _149
REMARK   65  A    between atoms: _151  and  _153
REMARK   66  A    between atoms: _153  and  _154
REMARK   67  A    between atoms: _153  and  _156
REMARK   68  A    between atoms: _156  and  _157
REMARK   69  A    between atoms: _163  and  _165
REMARK   70  A    between atoms: _165  and  _166
REMARK   71  A    between atoms: _165  and  _168
REMARK   72  A    between atoms: _168  and  _169
REMARK   73  A    between atoms: _172  and  _174
REMARK   74  A    between atoms: _174  and  _175
REMARK   75  A    between atoms: _174  and  _177
REMARK   76  A    between atoms: _177  and  _178
REMARK   77  A    between atoms: _181  and  _183
REMARK   78  A    between atoms: _183  and  _184
REMARK   79  A    between atoms: _183  and  _186
REMARK   80  A    between atoms: _186  and  _187
REMARK   81  A    between atoms: _191  and  _192
REMARK   82  A    between atoms: _197  and  _199
REMARK   83  A    between atoms: _199  and  _200
REMARK   84  A    between atoms: _199  and  _202
REMARK   85  A    between atoms: _205  and  _207
REMARK   86  A    between atoms: _207  and  _208
REMARK   87  A    between atoms: _207  and  _210
REMARK   88  A    between atoms: _210  and  _211
REMARK   89  A    between atoms: _216  and  _218
REMARK   90  A    between atoms: _218  and  _219
REMARK   91  A    between atoms: _218  and  _221
REMARK   92  A    between atoms: _221  and  _222
REMARK   93  A    between atoms: _225  and  _227
REMARK   94  A    between atoms: _227  and  _228
REMARK   95  A    between atoms: _227  and  _230
REMARK   96  A    between atoms: _230  and  _231
REMARK   97  A    between atoms: _234  and  _236
REMARK   98  A    between atoms: _236  and  _237
REMARK   99  A    between atoms: _239  and  _241
REMARK  100  A    between atoms: _241  and  _242
REMARK  101  A    between atoms: _241  and  _244
REMARK  102  A    between atoms: _244  and  _245
REMARK  103  A    between atoms: _245  and  _246
REMARK  104  A    between atoms: _246  and  _247
REMARK  105  A    between atoms: _256  and  _258
REMARK  106  A    between atoms: _258  and  _259
REMARK  107  A    between atoms: _258  and  _261
REMARK  108  A    between atoms: _261  and  _262
REMARK  109  A    between atoms: _267  and  _269
REMARK  110  A    between atoms: _269  and  _270
REMARK  111  A    between atoms: _269  and  _272
REMARK  112  A    between atoms: _272  and  _273
REMARK  113  A    between atoms: _273  and  _274
REMARK  114  A    between atoms: _274  and  _275
REMARK  115  A    between atoms: _284  and  _286
REMARK  116  A    between atoms: _286  and  _287
REMARK  117  A    between atoms: _286  and  _289
REMARK  118  A    between atoms: _289  and  _290
REMARK  119  A    between atoms: _293  and  _295
REMARK  120  A    between atoms: _295  and  _296
REMARK  121  A    between atoms: _295  and  _298
REMARK  122  A    between atoms: _298  and  _299
REMARK  123  A    between atoms: _302  and  _304
REMARK  124  A    between atoms: _304  and  _305
REMARK  125  A    between atoms: _304  and  _307
REMARK  126  A    between atoms: _307  and  _308
REMARK  127  A    between atoms: _311  and  _313
REMARK  128  A    between atoms: _313  and  _314
REMARK  129  A    between atoms: _313  and  _316
REMARK  130  A    between atoms: _316  and  _317
REMARK  131  A    between atoms: _320  and  _322
REMARK  132  A    between atoms: _322  and  _323
REMARK  133  A    between atoms: _322  and  _325
REMARK  134  A    between atoms: _325  and  _326
REMARK  135  A    between atoms: _329  and  _331
REMARK  136  A    between atoms: _331  and  _332
REMARK  137  A    between atoms: _334  and  _336
REMARK  138  A    between atoms: _336  and  _337
REMARK  139  A    between atoms: _340  and  _342
REMARK  140  A    between atoms: _342  and  _343
REMARK  141  A    between atoms: _342  and  _345
REMARK  142  A    between atoms: _345  and  _346
REMARK  143  A    between atoms: _349  and  _351
REMARK  144  A    between atoms: _351  and  _352
REMARK  145  A    between atoms: _351  and  _354
REMARK  146  A    between atoms: _354  and  _355
REMARK  147  A    between atoms: _358  and  _360
REMARK  148  A    between atoms: _360  and  _361
REMARK  149  A    between atoms: _360  and  _363
REMARK  150  A    between atoms: _363  and  _364
REMARK  151  A    between atoms: _367  and  _369
REMARK  152  A    between atoms: _369  and  _370
REMARK  153  A    between atoms: _369  and  _372
REMARK  154  A    between atoms: _375  and  _377
REMARK  155  A    between atoms: _377  and  _378
REMARK  156  A    between atoms: _377  and  _380
REMARK  157  A    between atoms: _380  and  _381
REMARK  158  A    between atoms: _381  and  _382
REMARK  159  A    between atoms: _382  and  _383
REMARK  160  A    between atoms: _383  and  _384
REMARK  161  A    between atoms: _388  and  _390
REMARK  162  A    between atoms: _390  and  _391
REMARK  163  A    between atoms: _390  and  _393
REMARK  164  A    between atoms: _393  and  _394
REMARK  165  A    between atoms: _394  and  _395
REMARK  166  A    between atoms: _397  and  _399
REMARK  167  A    between atoms: _399  and  _400
REMARK  168  A    between atoms: _399  and  _402
REMARK  169  A    between atoms: _402  and  _403
REMARK  170  A    between atoms: _406  and  _408
REMARK  171  A    between atoms: _408  and  _409
REMARK  172  A    between atoms: _411  and  _413
REMARK  173  A    between atoms: _413  and  _414
REMARK  174  A    between atoms: _416  and  _418
REMARK  175  A    between atoms: _418  and  _419
REMARK  176  A    between atoms: _418  and  _421
REMARK  177  A    between atoms: _421  and  _422
REMARK  178  A    between atoms: _425  and  _427
REMARK  179  A    between atoms: _427  and  _428
REMARK  180  A    between atoms: _430  and  _432
REMARK  181  A    between atoms: _432  and  _433
REMARK  182  A    between atoms: _435  and  _437
REMARK  183  A    between atoms: _437  and  _438
REMARK  184  A    between atoms: _437  and  _440
REMARK  185  A    between atoms: _440  and  _441
REMARK  186  A    between atoms: _447  and  _449
REMARK  187  A    between atoms: _449  and  _450
REMARK  188  A    between atoms: _449  and  _452
REMARK  189  A    between atoms: _452  and  _453
REMARK  190  A    between atoms: _456  and  _458
REMARK  191  A    between atoms: _458  and  _459
REMARK  192  A    between atoms: _458  and  _461
REMARK  193  A    between atoms: _464  and  _466
REMARK  194  A    between atoms: _466  and  _467
REMARK  195  A    between atoms: _466  and  _469
REMARK  196  A    between atoms: _469  and  _470
REMARK  197  A    between atoms: _473  and  _475
REMARK  198  A    between atoms: _475  and  _476
REMARK  199  A    between atoms: _475  and  _478
REMARK  200  A    between atoms: _478  and  _479
REMARK  201  A    between atoms: _483  and  _484
REMARK  202  A    between atoms: _489  and  _491
REMARK  203  A    between atoms: _491  and  _492
REMARK  204  A    between atoms: _491  and  _494
REMARK  205  A    between atoms: _497  and  _499
REMARK  206  A    between atoms: _499  and  _500
REMARK  207  A    between atoms: _499  and  _502
REMARK  208  A    between atoms: _502  and  _503
REMARK  209  A    between atoms: _508  and  _510
REMARK  210  A    between atoms: _510  and  _511
REMARK  211  A    between atoms: _510  and  _513
REMARK  212  A    between atoms: _513  and  _514
REMARK  213  A    between atoms: _517  and  _519
REMARK  214  A    between atoms: _519  and  _520
REMARK  215  A    between atoms: _519  and  _522
REMARK  216  A    between atoms: _522  and  _523
REMARK  217  A    between atoms: _526  and  _528
REMARK  218  A    between atoms: _528  and  _529
REMARK  219  A    between atoms: _531  and  _533
REMARK  220  A    between atoms: _533  and  _534
REMARK  221  A    between atoms: _533  and  _536
REMARK  222  A    between atoms: _536  and  _537
REMARK  223  A    between atoms: _537  and  _538
REMARK  224  A    between atoms: _538  and  _539
REMARK                            x       y       z     vdW  Elec       q    Type
REMARK                         _______ _______ _______ _____ _____    ______ ____
ROOT
ATOM      1  O   HOH     1       6.605 -11.132  19.821  0.00  0.00    +0.000 OA
ENDROOT
TORSDOF 0
REMARK  Name = ../refined-set-2016/1hih/1hih_pocket.pdb
REMARK  224 active torsions:
REMARK  status: ('A' for Active; 'I' for Inactive)
REMARK    1  A    between atoms: _1  and  _3
REMARK    2  A    between atoms: _3  and  _4
REMARK    3  A    between atoms: _3  and  _6
REMARK    4  A    between atoms: _6  and  _7
REMARK    5  A    between atoms: _7  and  _8
REMARK    6  A    between atoms: _8  and  _9
REMARK    7  A    between atoms: _18  and  _20
REMARK    8  A    between atoms: _20  and  _21
REMARK    9  A    between atoms: _20  and  _23
REMARK   10  A    between atoms: _23  and  _24
REMARK   11  A    between atoms: _27  and  _29
REMARK   12  A    between atoms: _29  and  _30
REMARK   13  A    between atoms: _29  and  _32
REMARK   14  A    between atoms: _32  and  _33
REMARK   15  A    between atoms: _36  and  _38
REMARK   16  A    between atoms: _38  and  _39
REMARK   17  A    between atoms: _38  and  _41
REMARK   18  A    between atoms: _41  and  _42
REMARK   19  A    between atoms: _45  and  _47
REMARK   20  A    between atoms: _47  and  _48
REMARK   21  A    between atoms: _47  and  _50
REMARK   22  A    between atoms: _50  and  _51
REMARK   23  A    between atoms: _54  and  _56
REMARK   24  A    between atoms: _56  and  _57
REMARK   25  A    between atoms: _59  and  _61
REMARK   26  A    between atoms: _61  and  _62
REMARK   27  A    between atoms: _65  and  _67
REMARK   28  A    between atoms: _67  and  _68
REMARK   29  A    between atoms: _67  and  _70
REMARK   30  A    between atoms: _70  and  _71
REMARK   31  A    between atoms: _74  and  _76
REMARK   32  A    between atoms: _76  and  _77
REMARK   33  A    between atoms: _76  and  _79
REMARK   34  A    between atoms: _79  and  _80
REMARK   35  A    between atoms: _83  and  _85
REMARK   36  A    between atoms: _85  and  _86
REMARK   37  A    between atoms: _85  and  _88
REMARK   38  A    between atoms: _88  and  _89
REMARK   39  A    between atoms: _92  and  _94
REMARK   40  A    between atoms: _94  and  _95
REMARK   41  A    between atoms: _94  and  _97
REMARK   42  A    between atoms: _100  and  _102
REMARK   43  A    between atoms: _102  and  _103
REMARK   44  A    between atoms: _102  and  _105
REMARK   45  A    between atoms: _105  and  _106
REMARK   46  A    between atoms: _106  and  _107
REMARK   47  A    between atoms: _107  and  _108
REMARK   48  A    between atoms: _108  and  _109
REMARK   49  A    between atoms: _113  and  _115
REMARK   50  A    between atoms: _115  and  _116
REMARK   51  A    between atoms: _115  and  _118
REMARK   52  A    between atoms: _118  and  _119
REMARK   53  A    between atoms: _122  and  _124
REMARK   54  A    between atoms: _124  and  _125
REMARK   55  A    between atoms: _127  and  _129
REMARK   56  A    between atoms: _129  and  _130
REMARK   57  A    between atoms: _132  and  _134
REMARK   58  A    between atoms: _134  and  _135
REMARK   59  A    between atoms: _134  and  _137
REMARK   60  A    between atoms: _137  and  _138
REMARK   61  A    between atoms: _141  and  _143
REMARK   62  A    between atoms: _143  and  _144
REMARK   63  A    between atoms: _146  and  _148
REMARK   64  A    between atoms: _148  and  _149
REMARK   65  A    between atoms: _151  and  _153
REMARK   66  A    between atoms: _153  and  _154
REMARK   67  A    between atoms: _153  and  _156
REMARK   68  A    between atoms: _156  and  _157
REMARK   69  A    between atoms: _163  and  _165
REMARK   70  A    between atoms: _165  and  _166
REMARK   71  A    between atoms: _165  and  _168
REMARK   72  A    between atoms: _168  and  _169
REMARK   73  A    between atoms: _172  and  _174
REMARK   74  A    between atoms: _174  and  _175
REMARK   75  A    between atoms: _174  and  _177
REMARK   76  A    between atoms: _177  and  _178
REMARK   77  A    between atoms: _181  and  _183
REMARK   78  A    between atoms: _183  and  _184
REMARK   79  A    between atoms: _183  and  _186
REMARK   80  A    between atoms: _186  and  _187
REMARK   81  A    between atoms: _191  and  _192
REMARK   82  A    between atoms: _197  and  _199
REMARK   83  A    between atoms: _199  and  _200
REMARK   84  A    between atoms: _199  and  _202
REMARK   85  A    between atoms: _205  and  _207
REMARK   86  A    between atoms: _207  and  _208
REMARK   87  A    between atoms: _207  and  _210
REMARK   88  A    between atoms: _210  and  _211
REMARK   89  A    between atoms: _216  and  _218
REMARK   90  A    between atoms: _218  and  _219
REMARK   91  A    between atoms: _218  and  _221
REMARK   92  A    between atoms: _221  and  _222
REMARK   93  A    between atoms: _225  and  _227
REMARK   94  A    between atoms: _227  and  _228
REMARK   95  A    between atoms: _227  and  _230
REMARK   96  A    between atoms: _230  and  _231
REMARK   97  A    between atoms: _234  and  _236
REMARK   98  A    between atoms: _236  and  _237
REMARK   99  A    between atoms: _239  and  _241
REMARK  100  A    between atoms: _241  and  _242
REMARK  101  A    between atoms: _241  and  _244
REMARK  102  A    between atoms: _244  and  _245
REMARK  103  A    between atoms: _245  and  _246
REMARK  104  A    between atoms: _246  and  _247
REMARK  105  A    between atoms: _256  and  _258
REMARK  106  A    between atoms: _258  and  _259
REMARK  107  A    between atoms: _258  and  _261
REMARK  108  A    between atoms: _261  and  _262
REMARK  109  A    between atoms: _267  and  _269
REMARK  110  A    between atoms: _269  and  _270
REMARK  111  A    between atoms: _269  and  _272
REMARK  112  A    between atoms: _272  and  _273
REMARK  113  A    between atoms: _273  and  _274
REMARK  114  A    between atoms: _274  and  _275
REMARK  115  A    between atoms: _284  and  _286
REMARK  116  A    between atoms: _286  and  _287
REMARK  117  A    between atoms: _286  and  _289
REMARK  118  A    between atoms: _289  and  _290
REMARK  119  A    between atoms: _293  and  _295
REMARK  120  A    between atoms: _295  and  _296
REMARK  121  A    between atoms: _295  and  _298
REMARK  122  A    between atoms: _298  and  _299
REMARK  123  A    between atoms: _302  and  _304
REMARK  124  A    between atoms: _304  and  _305
REMARK  125  A    between atoms: _304  and  _307
REMARK  126  A    between atoms: _307  and  _308
REMARK  127  A    between atoms: _311  and  _313
REMARK  128  A    between atoms: _313  and  _314
REMARK  129  A    between atoms: _313  and  _316
REMARK  130  A    between atoms: _316  and  _317
REMARK  131  A    between atoms: _320  and  _322
REMARK  132  A    between atoms: _322  and  _323
REMARK  133  A    between atoms: _322  and  _325
REMARK  134  A    between atoms: _325  and  _326
REMARK  135  A    between atoms: _329  and  _331
REMARK  136  A    between atoms: _331  and  _332
REMARK  137  A    between atoms: _334  and  _336
REMARK  138  A    between atoms: _336  and  _337
REMARK  139  A    between atoms: _340  and  _342
REMARK  140  A    between atoms: _342  and  _343
REMARK  141  A    between atoms: _342  and  _345
REMARK  142  A    between atoms: _345  and  _346
REMARK  143  A    between atoms: _349  and  _351
REMARK  144  A    between atoms: _351  and  _352
REMARK  145  A    between atoms: _351  and  _354
REMARK  146  A    between atoms: _354  and  _355
REMARK  147  A    between atoms: _358  and  _360
REMARK  148  A    between atoms: _360  and  _361
REMARK  149  A    between atoms: _360  and  _363
REMARK  150  A    between atoms: _363  and  _364
REMARK  151  A    between atoms: _367  and  _369
REMARK  152  A    between atoms: _369  and  _370
REMARK  153  A    between atoms: _369  and  _372
REMARK  154  A    between atoms: _375  and  _377
REMARK  155  A    between atoms: _377  and  _378
REMARK  156  A    between atoms: _377  and  _380
REMARK  157  A    between atoms: _380  and  _381
REMARK  158  A    between atoms: _381  and  _382
REMARK  159  A    between atoms: _382  and  _383
REMARK  160  A    between atoms: _383  and  _384
REMARK  161  A    between atoms: _388  and  _390
REMARK  162  A    between atoms: _390  and  _391
REMARK  163  A    between atoms: _390  and  _393
REMARK  164  A    between atoms: _393  and  _394
REMARK  165  A    between atoms: _394  and  _395
REMARK  166  A    between atoms: _397  and  _399
REMARK  167  A    between atoms: _399  and  _400
REMARK  168  A    between atoms: _399  and  _402
REMARK  169  A    between atoms: _402  and  _403
REMARK  170  A    between atoms: _406  and  _408
REMARK  171  A    between atoms: _408  and  _409
REMARK  172  A    between atoms: _411  and  _413
REMARK  173  A    between atoms: _413  and  _414
REMARK  174  A    between atoms: _416  and  _418
REMARK  175  A    between atoms: _418  and  _419
REMARK  176  A    between atoms: _418  and  _421
REMARK  177  A    between atoms: _421  and  _422
REMARK  178  A    between atoms: _425  and  _427
REMARK  179  A    between atoms: _427  and  _428
REMARK  180  A    between atoms: _430  and  _432
REMARK  181  A    between atoms: _432  and  _433
REMARK  182  A    between atoms: _435  and  _437
REMARK  183  A    between atoms: _437  and  _438
REMARK  184  A    between atoms: _437  and  _440
REMARK  185  A    between atoms: _440  and  _441
REMARK  186  A    between atoms: _447  and  _449
REMARK  187  A    between atoms: _449  and  _450
REMARK  188  A    between atoms: _449  and  _452
REMARK  189  A    between atoms: _452  and  _453
REMARK  190  A    between atoms: _456  and  _458
REMARK  191  A    between atoms: _458  and  _459
REMARK  192  A    between atoms: _458  and  _461
REMARK  193  A    between atoms: _464  and  _466
REMARK  194  A    between atoms: _466  and  _467
REMARK  195  A    between atoms: _466  and  _469
REMARK  196  A    between atoms: _469  and  _470
REMARK  197  A    between atoms: _473  and  _475
REMARK  198  A    between atoms: _475  and  _476
REMARK  199  A    between atoms: _475  and  _478
REMARK  200  A    between atoms: _478  and  _479
REMARK  201  A    between atoms: _483  and  _484
REMARK  202  A    between atoms: _489  and  _491
REMARK  203  A    between atoms: _491  and  _492
REMARK  204  A    between atoms: _491  and  _494
REMARK  205  A    between atoms: _497  and  _499
REMARK  206  A    between atoms: _499  and  _500
REMARK  207  A    between atoms: _499  and  _502
REMARK  208  A    between atoms: _502  and  _503
REMARK  209  A    between atoms: _508  and  _510
REMARK  210  A    between atoms: _510  and  _511
REMARK  211  A    between atoms: _510  and  _513
REMARK  212  A    between atoms: _513  and  _514
REMARK  213  A    between atoms: _517  and  _519
REMARK  214  A    between atoms: _519  and  _520
REMARK  215  A    between atoms: _519  and  _522
REMARK  216  A    between atoms: _522  and  _523
REMARK  217  A    between atoms: _526  and  _528
REMARK  218  A    between atoms: _528  and  _529
REMARK  219  A    between atoms: _531  and  _533
REMARK  220  A    between atoms: _533  and  _534
REMARK  221  A    between atoms: _533  and  _536
REMARK  222  A    between atoms: _536  and  _537
REMARK  223  A    between atoms: _537  and  _538
REMARK  224  A    between atoms: _538  and  _539
REMARK                            x       y       z     vdW  Elec       q    Type
REMARK                         _______ _______ _______ _____ _____    ______ ____
ROOT
ATOM      1  O   HOH     1       0.596  10.885  10.758  0.00  0.00    +0.000 OA
ENDROOT
TORSDOF 0
REMARK  Name = ../refined-set-2016/1hih/1hih_pocket.pdb
REMARK  224 active torsions:
REMARK  status: ('A' for Active; 'I' for Inactive)
REMARK    1  A    between atoms: _1  and  _3
REMARK    2  A    between atoms: _3  and  _4
REMARK    3  A    between atoms: _3  and  _6
REMARK    4  A    between atoms: _6  and  _7
REMARK    5  A    between atoms: _7  and  _8
REMARK    6  A    between atoms: _8  and  _9
REMARK    7  A    between atoms: _18  and  _20
REMARK    8  A    between atoms: _20  and  _21
REMARK    9  A    between atoms: _20  and  _23
REMARK   10  A    between atoms: _23  and  _24
REMARK   11  A    between atoms: _27  and  _29
REMARK   12  A    between atoms: _29  and  _30
REMARK   13  A    between atoms: _29  and  _32
REMARK   14  A    between atoms: _32  and  _33
REMARK   15  A    between atoms: _36  and  _38
REMARK   16  A    between atoms: _38  and  _39
REMARK   17  A    between atoms: _38  and  _41
REMARK   18  A    between atoms: _41  and  _42
REMARK   19  A    between atoms: _45  and  _47
REMARK   20  A    between atoms: _47  and  _48
REMARK   21  A    between atoms: _47  and  _50
REMARK   22  A    between atoms: _50  and  _51
REMARK   23  A    between atoms: _54  and  _56
REMARK   24  A    between atoms: _56  and  _57
REMARK   25  A    between atoms: _59  and  _61
REMARK   26  A    between atoms: _61  and  _62
REMARK   27  A    between atoms: _65  and  _67
REMARK   28  A    between atoms: _67  and  _68
REMARK   29  A    between atoms: _67  and  _70
REMARK   30  A    between atoms: _70  and  _71
REMARK   31  A    between atoms: _74  and  _76
REMARK   32  A    between atoms: _76  and  _77
REMARK   33  A    between atoms: _76  and  _79
REMARK   34  A    between atoms: _79  and  _80
REMARK   35  A    between atoms: _83  and  _85
REMARK   36  A    between atoms: _85  and  _86
REMARK   37  A    between atoms: _85  and  _88
REMARK   38  A    between atoms: _88  and  _89
REMARK   39  A    between atoms: _92  and  _94
REMARK   40  A    between atoms: _94  and  _95
REMARK   41  A    between atoms: _94  and  _97
REMARK   42  A    between atoms: _100  and  _102
REMARK   43  A    between atoms: _102  and  _103
REMARK   44  A    between atoms: _102  and  _105
REMARK   45  A    between atoms: _105  and  _106
REMARK   46  A    between atoms: _106  and  _107
REMARK   47  A    between atoms: _107  and  _108
REMARK   48  A    between atoms: _108  and  _109
REMARK   49  A    between atoms: _113  and  _115
REMARK   50  A    between atoms: _115  and  _116
REMARK   51  A    between atoms: _115  and  _118
REMARK   52  A    between atoms: _118  and  _119
REMARK   53  A    between atoms: _122  and  _124
REMARK   54  A    between atoms: _124  and  _125
REMARK   55  A    between atoms: _127  and  _129
REMARK   56  A    between atoms: _129  and  _130
REMARK   57  A    between atoms: _132  and  _134
REMARK   58  A    between atoms: _134  and  _135
REMARK   59  A    between atoms: _134  and  _137
REMARK   60  A    between atoms: _137  and  _138
REMARK   61  A    between atoms: _141  and  _143
REMARK   62  A    between atoms: _143  and  _144
REMARK   63  A    between atoms: _146  and  _148
REMARK   64  A    between atoms: _148  and  _149
REMARK   65  A    between atoms: _151  and  _153
REMARK   66  A    between atoms: _153  and  _154
REMARK   67  A    between atoms: _153  and  _156
REMARK   68  A    between atoms: _156  and  _157
REMARK   69  A    between atoms: _163  and  _165
REMARK   70  A    between atoms: _165  and  _166
REMARK   71  A    between atoms: _165  and  _168
REMARK   72  A    between atoms: _168  and  _169
REMARK   73  A    between atoms: _172  and  _174
REMARK   74  A    between atoms: _174  and  _175
REMARK   75  A    between atoms: _174  and  _177
REMARK   76  A    between atoms: _177  and  _178
REMARK   77  A    between atoms: _181  and  _183
REMARK   78  A    between atoms: _183  and  _184
REMARK   79  A    between atoms: _183  and  _186
REMARK   80  A    between atoms: _186  and  _187
REMARK   81  A    between atoms: _191  and  _192
REMARK   82  A    between atoms: _197  and  _199
REMARK   83  A    between atoms: _199  and  _200
REMARK   84  A    between atoms: _199  and  _202
REMARK   85  A    between atoms: _205  and  _207
REMARK   86  A    between atoms: _207  and  _208
REMARK   87  A    between atoms: _207  and  _210
REMARK   88  A    between atoms: _210  and  _211
REMARK   89  A    between atoms: _216  and  _218
REMARK   90  A    between atoms: _218  and  _219
REMARK   91  A    between atoms: _218  and  _221
REMARK   92  A    between atoms: _221  and  _222
REMARK   93  A    between atoms: _225  and  _227
REMARK   94  A    between atoms: _227  and  _228
REMARK   95  A    between atoms: _227  and  _230
REMARK   96  A    between atoms: _230  and  _231
REMARK   97  A    between atoms: _234  and  _236
REMARK   98  A    between atoms: _236  and  _237
REMARK   99  A    between atoms: _239  and  _241
REMARK  100  A    between atoms: _241  and  _242
REMARK  101  A    between atoms: _241  and  _244
REMARK  102  A    between atoms: _244  and  _245
REMARK  103  A    between atoms: _245  and  _246
REMARK  104  A    between atoms: _246  and  _247
REMARK  105  A    between atoms: _256  and  _258
REMARK  106  A    between atoms: _258  and  _259
REMARK  107  A    between atoms: _258  and  _261
REMARK  108  A    between atoms: _261  and  _262
REMARK  109  A    between atoms: _267  and  _269
REMARK  110  A    between atoms: _269  and  _270
REMARK  111  A    between atoms: _269  and  _272
REMARK  112  A    between atoms: _272  and  _273
REMARK  113  A    between atoms: _273  and  _274
REMARK  114  A    between atoms: _274  and  _275
REMARK  115  A    between atoms: _284  and  _286
REMARK  116  A    between atoms: _286  and  _287
REMARK  117  A    between atoms: _286  and  _289
REMARK  118  A    between atoms: _289  and  _290
REMARK  119  A    between atoms: _293  and  _295
REMARK  120  A    between atoms: _295  and  _296
REMARK  121  A    between atoms: _295  and  _298
REMARK  122  A    between atoms: _298  and  _299
REMARK  123  A    between atoms: _302  and  _304
REMARK  124  A    between atoms: _304  and  _305
REMARK  125  A    between atoms: _304  and  _307
REMARK  126  A    between atoms: _307  and  _308
REMARK  127  A    between atoms: _311  and  _313
REMARK  128  A    between atoms: _313  and  _314
REMARK  129  A    between atoms: _313  and  _316
REMARK  130  A    between atoms: _316  and  _317
REMARK  131  A    between atoms: _320  and  _322
REMARK  132  A    between atoms: _322  and  _323
REMARK  133  A    between atoms: _322  and  _325
REMARK  134  A    between atoms: _325  and  _326
REMARK  135  A    between atoms: _329  and  _331
REMARK  136  A    between atoms: _331  and  _332
REMARK  137  A    between atoms: _334  and  _336
REMARK  138  A    between atoms: _336  and  _337
REMARK  139  A    between atoms: _340  and  _342
REMARK  140  A    between atoms: _342  and  _343
REMARK  141  A    between atoms: _342  and  _345
REMARK  142  A    between atoms: _345  and  _346
REMARK  143  A    between atoms: _349  and  _351
REMARK  144  A    between atoms: _351  and  _352
REMARK  145  A    between atoms: _351  and  _354
REMARK  146  A    between atoms: _354  and  _355
REMARK  147  A    between atoms: _358  and  _360
REMARK  148  A    between atoms: _360  and  _361
REMARK  149  A    between atoms: _360  and  _363
REMARK  150  A    between atoms: _363  and  _364
REMARK  151  A    between atoms: _367  and  _369
REMARK  152  A    between atoms: _369  and  _370
REMARK  153  A    between atoms: _369  and  _372
REMARK  154  A    between atoms: _375  and  _377
REMARK  155  A    between atoms: _377  and  _378
REMARK  156  A    between atoms: _377  and  _380
REMARK  157  A    between atoms: _380  and  _381
REMARK  158  A    between atoms: _381  and  _382
REMARK  159  A    between atoms: _382  and  _383
REMARK  160  A    between atoms: _383  and  _384
REMARK  161  A    between atoms: _388  and  _390
REMARK  162  A    between atoms: _390  and  _391
REMARK  163  A    between atoms: _390  and  _393
REMARK  164  A    between atoms: _393  and  _394
REMARK  165  A    between atoms: _394  and  _395
REMARK  166  A    between atoms: _397  and  _399
REMARK  167  A    between atoms: _399  and  _400
REMARK  168  A    between atoms: _399  and  _402
REMARK  169  A    between atoms: _402  and  _403
REMARK  170  A    between atoms: _406  and  _408
REMARK  171  A    between atoms: _408  and  _409
REMARK  172  A    between atoms: _411  and  _413
REMARK  173  A    between atoms: _413  and  _414
REMARK  174  A    between atoms: _416  and  _418
REMARK  175  A    between atoms: _418  and  _419
REMARK  176  A    between atoms: _418  and  _421
REMARK  177  A    between atoms: _421  and  _422
REMARK  178  A    between atoms: _425  and  _427
REMARK  179  A    between atoms: _427  and  _428
REMARK  180  A    between atoms: _430  and  _432
REMARK  181  A    between atoms: _432  and  _433
REMARK  182  A    between atoms: _435  and  _437
REMARK  183  A    between atoms: _437  and  _438
REMARK  184  A    between atoms: _437  and  _440
REMARK  185  A    between atoms: _440  and  _441
REMARK  186  A    between atoms: _447  and  _449
REMARK  187  A    between atoms: _449  and  _450
REMARK  188  A    between atoms: _449  and  _452
REMARK  189  A    between atoms: _452  and  _453
REMARK  190  A    between atoms: _456  and  _458
REMARK  191  A    between atoms: _458  and  _459
REMARK  192  A    between atoms: _458  and  _461
REMARK  193  A    between atoms: _464  and  _466
REMARK  194  A    between atoms: _466  and  _467
REMARK  195  A    between atoms: _466  and  _469
REMARK  196  A    between atoms: _469  and  _470
REMARK  197  A    between atoms: _473  and  _475
REMARK  198  A    between atoms: _475  and  _476
REMARK  199  A    between atoms: _475  and  _478
REMARK  200  A    between atoms: _478  and  _479
REMARK  201  A    between atoms: _483  and  _484
REMARK  202  A    between atoms: _489  and  _491
REMARK  203  A    between atoms: _491  and  _492
REMARK  204  A    between atoms: _491  and  _494
REMARK  205  A    between atoms: _497  and  _499
REMARK  206  A    between atoms: _499  and  _500
REMARK  207  A    between atoms: _499  and  _502
REMARK  208  A    between atoms: _502  and  _503
REMARK  209  A    between atoms: _508  and  _510
REMARK  210  A    between atoms: _510  and  _511
REMARK  211  A    between atoms: _510  and  _513
REMARK  212  A    between atoms: _513  and  _514
REMARK  213  A    between atoms: _517  and  _519
REMARK  214  A    between atoms: _519  and  _520
REMARK  215  A    between atoms: _519  and  _522
REMARK  216  A    between atoms: _522  and  _523
REMARK  217  A    between atoms: _526  and  _528
REMARK  218  A    between atoms: _528  and  _529
REMARK  219  A    between atoms: _531  and  _533
REMARK  220  A    between atoms: _533  and  _534
REMARK  221  A    between atoms: _533  and  _536
REMARK  222  A    between atoms: _536  and  _537
REMARK  223  A    between atoms: _537  and  _538
REMARK  224  A    between atoms: _538  and  _539
REMARK                            x       y       z     vdW  Elec       q    Type
REMARK                         _______ _______ _______ _____ _____    ______ ____
ROOT
ATOM      1  O   HOH     1       4.282   2.553   5.437  0.00  0.00    +0.000 OA
ENDROOT
TORSDOF 0
REMARK  Name = ../refined-set-2016/1hih/1hih_pocket.pdb
REMARK  224 active torsions:
REMARK  status: ('A' for Active; 'I' for Inactive)
REMARK    1  A    between atoms: _1  and  _3
REMARK    2  A    between atoms: _3  and  _4
REMARK    3  A    between atoms: _3  and  _6
REMARK    4  A    between atoms: _6  and  _7
REMARK    5  A    between atoms: _7  and  _8
REMARK    6  A    between atoms: _8  and  _9
REMARK    7  A    between atoms: _18  and  _20
REMARK    8  A    between atoms: _20  and  _21
REMARK    9  A    between atoms: _20  and  _23
REMARK   10  A    between atoms: _23  and  _24
REMARK   11  A    between atoms: _27  and  _29
REMARK   12  A    between atoms: _29  and  _30
REMARK   13  A    between atoms: _29  and  _32
REMARK   14  A    between atoms: _32  and  _33
REMARK   15  A    between atoms: _36  and  _38
REMARK   16  A    between atoms: _38  and  _39
REMARK   17  A    between atoms: _38  and  _41
REMARK   18  A    between atoms: _41  and  _42
REMARK   19  A    between atoms: _45  and  _47
REMARK   20  A    between atoms: _47  and  _48
REMARK   21  A    between atoms: _47  and  _50
REMARK   22  A    between atoms: _50  and  _51
REMARK   23  A    between atoms: _54  and  _56
REMARK   24  A    between atoms: _56  and  _57
REMARK   25  A    between atoms: _59  and  _61
REMARK   26  A    between atoms: _61  and  _62
REMARK   27  A    between atoms: _65  and  _67
REMARK   28  A    between atoms: _67  and  _68
REMARK   29  A    between atoms: _67  and  _70
REMARK   30  A    between atoms: _70  and  _71
REMARK   31  A    between atoms: _74  and  _76
REMARK   32  A    between atoms: _76  and  _77
REMARK   33  A    between atoms: _76  and  _79
REMARK   34  A    between atoms: _79  and  _80
REMARK   35  A    between atoms: _83  and  _85
REMARK   36  A    between atoms: _85  and  _86
REMARK   37  A    between atoms: _85  and  _88
REMARK   38  A    between atoms: _88  and  _89
REMARK   39  A    between atoms: _92  and  _94
REMARK   40  A    between atoms: _94  and  _95
REMARK   41  A    between atoms: _94  and  _97
REMARK   42  A    between atoms: _100  and  _102
REMARK   43  A    between atoms: _102  and  _103
REMARK   44  A    between atoms: _102  and  _105
REMARK   45  A    between atoms: _105  and  _106
REMARK   46  A    between atoms: _106  and  _107
REMARK   47  A    between atoms: _107  and  _108
REMARK   48  A    between atoms: _108  and  _109
REMARK   49  A    between atoms: _113  and  _115
REMARK   50  A    between atoms: _115  and  _116
REMARK   51  A    between atoms: _115  and  _118
REMARK   52  A    between atoms: _118  and  _119
REMARK   53  A    between atoms: _122  and  _124
REMARK   54  A    between atoms: _124  and  _125
REMARK   55  A    between atoms: _127  and  _129
REMARK   56  A    between atoms: _129  and  _130
REMARK   57  A    between atoms: _132  and  _134
REMARK   58  A    between atoms: _134  and  _135
REMARK   59  A    between atoms: _134  and  _137
REMARK   60  A    between atoms: _137  and  _138
REMARK   61  A    between atoms: _141  and  _143
REMARK   62  A    between atoms: _143  and  _144
REMARK   63  A    between atoms: _146  and  _148
REMARK   64  A    between atoms: _148  and  _149
REMARK   65  A    between atoms: _151  and  _153
REMARK   66  A    between atoms: _153  and  _154
REMARK   67  A    between atoms: _153  and  _156
REMARK   68  A    between atoms: _156  and  _157
REMARK   69  A    between atoms: _163  and  _165
REMARK   70  A    between atoms: _165  and  _166
REMARK   71  A    between atoms: _165  and  _168
REMARK   72  A    between atoms: _168  and  _169
REMARK   73  A    between atoms: _172  and  _174
REMARK   74  A    between atoms: _174  and  _175
REMARK   75  A    between atoms: _174  and  _177
REMARK   76  A    between atoms: _177  and  _178
REMARK   77  A    between atoms: _181  and  _183
REMARK   78  A    between atoms: _183  and  _184
REMARK   79  A    between atoms: _183  and  _186
REMARK   80  A    between atoms: _186  and  _187
REMARK   81  A    between atoms: _191  and  _192
REMARK   82  A    between atoms: _197  and  _199
REMARK   83  A    between atoms: _199  and  _200
REMARK   84  A    between atoms: _199  and  _202
REMARK   85  A    between atoms: _205  and  _207
REMARK   86  A    between atoms: _207  and  _208
REMARK   87  A    between atoms: _207  and  _210
REMARK   88  A    between atoms: _210  and  _211
REMARK   89  A    between atoms: _216  and  _218
REMARK   90  A    between atoms: _218  and  _219
REMARK   91  A    between atoms: _218  and  _221
REMARK   92  A    between atoms: _221  and  _222
REMARK   93  A    between atoms: _225  and  _227
REMARK   94  A    between atoms: _227  and  _228
REMARK   95  A    between atoms: _227  and  _230
REMARK   96  A    between atoms: _230  and  _231
REMARK   97  A    between atoms: _234  and  _236
REMARK   98  A    between atoms: _236  and  _237
REMARK   99  A    between atoms: _239  and  _241
REMARK  100  A    between atoms: _241  and  _242
REMARK  101  A    between atoms: _241  and  _244
REMARK  102  A    between atoms: _244  and  _245
REMARK  103  A    between atoms: _245  and  _246
REMARK  104  A    between atoms: _246  and  _247
REMARK  105  A    between atoms: _256  and  _258
REMARK  106  A    between atoms: _258  and  _259
REMARK  107  A    between atoms: _258  and  _261
REMARK  108  A    between atoms: _261  and  _262
REMARK  109  A    between atoms: _267  and  _269
REMARK  110  A    between atoms: _269  and  _270
REMARK  111  A    between atoms: _269  and  _272
REMARK  112  A    between atoms: _272  and  _273
REMARK  113  A    between atoms: _273  and  _274
REMARK  114  A    between atoms: _274  and  _275
REMARK  115  A    between atoms: _284  and  _286
REMARK  116  A    between atoms: _286  and  _287
REMARK  117  A    between atoms: _286  and  _289
REMARK  118  A    between atoms: _289  and  _290
REMARK  119  A    between atoms: _293  and  _295
REMARK  120  A    between atoms: _295  and  _296
REMARK  121  A    between atoms: _295  and  _298
REMARK  122  A    between atoms: _298  and  _299
REMARK  123  A    between atoms: _302  and  _304
REMARK  124  A    between atoms: _304  and  _305
REMARK  125  A    between atoms: _304  and  _307
REMARK  126  A    between atoms: _307  and  _308
REMARK  127  A    between atoms: _311  and  _313
REMARK  128  A    between atoms: _313  and  _314
REMARK  129  A    between atoms: _313  and  _316
REMARK  130  A    between atoms: _316  and  _317
REMARK  131  A    between atoms: _320  and  _322
REMARK  132  A    between atoms: _322  and  _323
REMARK  133  A    between atoms: _322  and  _325
REMARK  134  A    between atoms: _325  and  _326
REMARK  135  A    between atoms: _329  and  _331
REMARK  136  A    between atoms: _331  and  _332
REMARK  137  A    between atoms: _334  and  _336
REMARK  138  A    between atoms: _336  and  _337
REMARK  139  A    between atoms: _340  and  _342
REMARK  140  A    between atoms: _342  and  _343
REMARK  141  A    between atoms: _342  and  _345
REMARK  142  A    between atoms: _345  and  _346
REMARK  143  A    between atoms: _349  and  _351
REMARK  144  A    between atoms: _351  and  _352
REMARK  145  A    between atoms: _351  and  _354
REMARK  146  A    between atoms: _354  and  _355
REMARK  147  A    between atoms: _358  and  _360
REMARK  148  A    between atoms: _360  and  _361
REMARK  149  A    between atoms: _360  and  _363
REMARK  150  A    between atoms: _363  and  _364
REMARK  151  A    between atoms: _367  and  _369
REMARK  152  A    between atoms: _369  and  _370
REMARK  153  A    between atoms: _369  and  _372
REMARK  154  A    between atoms: _375  and  _377
REMARK  155  A    between atoms: _377  and  _378
REMARK  156  A    between atoms: _377  and  _380
REMARK  157  A    between atoms: _380  and  _381
REMARK  158  A    between atoms: _381  and  _382
REMARK  159  A    between atoms: _382  and  _383
REMARK  160  A    between atoms: _383  and  _384
REMARK  161  A    between atoms: _388  and  _390
REMARK  162  A    between atoms: _390  and  _391
REMARK  163  A    between atoms: _390  and  _393
REMARK  164  A    between atoms: _393  and  _394
REMARK  165  A    between atoms: _394  and  _395
REMARK  166  A    between atoms: _397  and  _399
REMARK  167  A    between atoms: _399  and  _400
REMARK  168  A    between atoms: _399  and  _402
REMARK  169  A    between atoms: _402  and  _403
REMARK  170  A    between atoms: _406  and  _408
REMARK  171  A    between atoms: _408  and  _409
REMARK  172  A    between atoms: _411  and  _413
REMARK  173  A    between atoms: _413  and  _414
REMARK  174  A    between atoms: _416  and  _418
REMARK  175  A    between atoms: _418  and  _419
REMARK  176  A    between atoms: _418  and  _421
REMARK  177  A    between atoms: _421  and  _422
REMARK  178  A    between atoms: _425  and  _427
REMARK  179  A    between atoms: _427  and  _428
REMARK  180  A    between atoms: _430  and  _432
REMARK  181  A    between atoms: _432  and  _433
REMARK  182  A    between atoms: _435  and  _437
REMARK  183  A    between atoms: _437  and  _438
REMARK  184  A    between atoms: _437  and  _440
REMARK  185  A    between atoms: _440  and  _441
REMARK  186  A    between atoms: _447  and  _449
REMARK  187  A    between atoms: _449  and  _450
REMARK  188  A    between atoms: _449  and  _452
REMARK  189  A    between atoms: _452  and  _453
REMARK  190  A    between atoms: _456  and  _458
REMARK  191  A    between atoms: _458  and  _459
REMARK  192  A    between atoms: _458  and  _461
REMARK  193  A    between atoms: _464  and  _466
REMARK  194  A    between atoms: _466  and  _467
REMARK  195  A    between atoms: _466  and  _469
REMARK  196  A    between atoms: _469  and  _470
REMARK  197  A    between atoms: _473  and  _475
REMARK  198  A    between atoms: _475  and  _476
REMARK  199  A    between atoms: _475  and  _478
REMARK  200  A    between atoms: _478  and  _479
REMARK  201  A    between atoms: _483  and  _484
REMARK  202  A    between atoms: _489  and  _491
REMARK  203  A    between atoms: _491  and  _492
REMARK  204  A    between atoms: _491  and  _494
REMARK  205  A    between atoms: _497  and  _499
REMARK  206  A    between atoms: _499  and  _500
REMARK  207  A    between atoms: _499  and  _502
REMARK  208  A    between atoms: _502  and  _503
REMARK  209  A    between atoms: _508  and  _510
REMARK  210  A    between atoms: _510  and  _511
REMARK  211  A    between atoms: _510  and  _513
REMARK  212  A    between atoms: _513  and  _514
REMARK  213  A    between atoms: _517  and  _519
REMARK  214  A    between atoms: _519  and  _520
REMARK  215  A    between atoms: _519  and  _522
REMARK  216  A    between atoms: _522  and  _523
REMARK  217  A    between atoms: _526  and  _528
REMARK  218  A    between atoms: _528  and  _529
REMARK  219  A    between atoms: _531  and  _533
REMARK  220  A    between atoms: _533  and  _534
REMARK  221  A    between atoms: _533  and  _536
REMARK  222  A    between atoms: _536  and  _537
REMARK  223  A    between atoms: _537  and  _538
REMARK  224  A    between atoms: _538  and  _539
REMARK                            x       y       z     vdW  Elec       q    Type
REMARK                         _______ _______ _______ _____ _____    ______ ____
ROOT
ATOM      1  O   HOH     1       5.094  -3.144  12.062  0.00  0.00    +0.000 OA
ENDROOT
TORSDOF 0
REMARK  Name = ../refined-set-2016/1hih/1hih_pocket.pdb
REMARK  224 active torsions:
REMARK  status: ('A' for Active; 'I' for Inactive)
REMARK    1  A    between atoms: _1  and  _3
REMARK    2  A    between atoms: _3  and  _4
REMARK    3  A    between atoms: _3  and  _6
REMARK    4  A    between atoms: _6  and  _7
REMARK    5  A    between atoms: _7  and  _8
REMARK    6  A    between atoms: _8  and  _9
REMARK    7  A    between atoms: _18  and  _20
REMARK    8  A    between atoms: _20  and  _21
REMARK    9  A    between atoms: _20  and  _23
REMARK   10  A    between atoms: _23  and  _24
REMARK   11  A    between atoms: _27  and  _29
REMARK   12  A    between atoms: _29  and  _30
REMARK   13  A    between atoms: _29  and  _32
REMARK   14  A    between atoms: _32  and  _33
REMARK   15  A    between atoms: _36  and  _38
REMARK   16  A    between atoms: _38  and  _39
REMARK   17  A    between atoms: _38  and  _41
REMARK   18  A    between atoms: _41  and  _42
REMARK   19  A    between atoms: _45  and  _47
REMARK   20  A    between atoms: _47  and  _48
REMARK   21  A    between atoms: _47  and  _50
REMARK   22  A    between atoms: _50  and  _51
REMARK   23  A    between atoms: _54  and  _56
REMARK   24  A    between atoms: _56  and  _57
REMARK   25  A    between atoms: _59  and  _61
REMARK   26  A    between atoms: _61  and  _62
REMARK   27  A    between atoms: _65  and  _67
REMARK   28  A    between atoms: _67  and  _68
REMARK   29  A    between atoms: _67  and  _70
REMARK   30  A    between atoms: _70  and  _71
REMARK   31  A    between atoms: _74  and  _76
REMARK   32  A    between atoms: _76  and  _77
REMARK   33  A    between atoms: _76  and  _79
REMARK   34  A    between atoms: _79  and  _80
REMARK   35  A    between atoms: _83  and  _85
REMARK   36  A    between atoms: _85  and  _86
REMARK   37  A    between atoms: _85  and  _88
REMARK   38  A    between atoms: _88  and  _89
REMARK   39  A    between atoms: _92  and  _94
REMARK   40  A    between atoms: _94  and  _95
REMARK   41  A    between atoms: _94  and  _97
REMARK   42  A    between atoms: _100  and  _102
REMARK   43  A    between atoms: _102  and  _103
REMARK   44  A    between atoms: _102  and  _105
REMARK   45  A    between atoms: _105  and  _106
REMARK   46  A    between atoms: _106  and  _107
REMARK   47  A    between atoms: _107  and  _108
REMARK   48  A    between atoms: _108  and  _109
REMARK   49  A    between atoms: _113  and  _115
REMARK   50  A    between atoms: _115  and  _116
REMARK   51  A    between atoms: _115  and  _118
REMARK   52  A    between atoms: _118  and  _119
REMARK   53  A    between atoms: _122  and  _124
REMARK   54  A    between atoms: _124  and  _125
REMARK   55  A    between atoms: _127  and  _129
REMARK   56  A    between atoms: _129  and  _130
REMARK   57  A    between atoms: _132  and  _134
REMARK   58  A    between atoms: _134  and  _135
REMARK   59  A    between atoms: _134  and  _137
REMARK   60  A    between atoms: _137  and  _138
REMARK   61  A    between atoms: _141  and  _143
REMARK   62  A    between atoms: _143  and  _144
REMARK   63  A    between atoms: _146  and  _148
REMARK   64  A    between atoms: _148  and  _149
REMARK   65  A    between atoms: _151  and  _153
REMARK   66  A    between atoms: _153  and  _154
REMARK   67  A    between atoms: _153  and  _156
REMARK   68  A    between atoms: _156  and  _157
REMARK   69  A    between atoms: _163  and  _165
REMARK   70  A    between atoms: _165  and  _166
REMARK   71  A    between atoms: _165  and  _168
REMARK   72  A    between atoms: _168  and  _169
REMARK   73  A    between atoms: _172  and  _174
REMARK   74  A    between atoms: _174  and  _175
REMARK   75  A    between atoms: _174  and  _177
REMARK   76  A    between atoms: _177  and  _178
REMARK   77  A    between atoms: _181  and  _183
REMARK   78  A    between atoms: _183  and  _184
REMARK   79  A    between atoms: _183  and  _186
REMARK   80  A    between atoms: _186  and  _187
REMARK   81  A    between atoms: _191  and  _192
REMARK   82  A    between atoms: _197  and  _199
REMARK   83  A    between atoms: _199  and  _200
REMARK   84  A    between atoms: _199  and  _202
REMARK   85  A    between atoms: _205  and  _207
REMARK   86  A    between atoms: _207  and  _208
REMARK   87  A    between atoms: _207  and  _210
REMARK   88  A    between atoms: _210  and  _211
REMARK   89  A    between atoms: _216  and  _218
REMARK   90  A    between atoms: _218  and  _219
REMARK   91  A    between atoms: _218  and  _221
REMARK   92  A    between atoms: _221  and  _222
REMARK   93  A    between atoms: _225  and  _227
REMARK   94  A    between atoms: _227  and  _228
REMARK   95  A    between atoms: _227  and  _230
REMARK   96  A    between atoms: _230  and  _231
REMARK   97  A    between atoms: _234  and  _236
REMARK   98  A    between atoms: _236  and  _237
REMARK   99  A    between atoms: _239  and  _241
REMARK  100  A    between atoms: _241  and  _242
REMARK  101  A    between atoms: _241  and  _244
REMARK  102  A    between atoms: _244  and  _245
REMARK  103  A    between atoms: _245  and  _246
REMARK  104  A    between atoms: _246  and  _247
REMARK  105  A    between atoms: _256  and  _258
REMARK  106  A    between atoms: _258  and  _259
REMARK  107  A    between atoms: _258  and  _261
REMARK  108  A    between atoms: _261  and  _262
REMARK  109  A    between atoms: _267  and  _269
REMARK  110  A    between atoms: _269  and  _270
REMARK  111  A    between atoms: _269  and  _272
REMARK  112  A    between atoms: _272  and  _273
REMARK  113  A    between atoms: _273  and  _274
REMARK  114  A    between atoms: _274  and  _275
REMARK  115  A    between atoms: _284  and  _286
REMARK  116  A    between atoms: _286  and  _287
REMARK  117  A    between atoms: _286  and  _289
REMARK  118  A    between atoms: _289  and  _290
REMARK  119  A    between atoms: _293  and  _295
REMARK  120  A    between atoms: _295  and  _296
REMARK  121  A    between atoms: _295  and  _298
REMARK  122  A    between atoms: _298  and  _299
REMARK  123  A    between atoms: _302  and  _304
REMARK  124  A    between atoms: _304  and  _305
REMARK  125  A    between atoms: _304  and  _307
REMARK  126  A    between atoms: _307  and  _308
REMARK  127  A    between atoms: _311  and  _313
REMARK  128  A    between atoms: _313  and  _314
REMARK  129  A    between atoms: _313  and  _316
REMARK  130  A    between atoms: _316  and  _317
REMARK  131  A    between atoms: _320  and  _322
REMARK  132  A    between atoms: _322  and  _323
REMARK  133  A    between atoms: _322  and  _325
REMARK  134  A    between atoms: _325  and  _326
REMARK  135  A    between atoms: _329  and  _331
REMARK  136  A    between atoms: _331  and  _332
REMARK  137  A    between atoms: _334  and  _336
REMARK  138  A    between atoms: _336  and  _337
REMARK  139  A    between atoms: _340  and  _342
REMARK  140  A    between atoms: _342  and  _343
REMARK  141  A    between atoms: _342  and  _345
REMARK  142  A    between atoms: _345  and  _346
REMARK  143  A    between atoms: _349  and  _351
REMARK  144  A    between atoms: _351  and  _352
REMARK  145  A    between atoms: _351  and  _354
REMARK  146  A    between atoms: _354  and  _355
REMARK  147  A    between atoms: _358  and  _360
REMARK  148  A    between atoms: _360  and  _361
REMARK  149  A    between atoms: _360  and  _363
REMARK  150  A    between atoms: _363  and  _364
REMARK  151  A    between atoms: _367  and  _369
REMARK  152  A    between atoms: _369  and  _370
REMARK  153  A    between atoms: _369  and  _372
REMARK  154  A    between atoms: _375  and  _377
REMARK  155  A    between atoms: _377  and  _378
REMARK  156  A    between atoms: _377  and  _380
REMARK  157  A    between atoms: _380  and  _381
REMARK  158  A    between atoms: _381  and  _382
REMARK  159  A    between atoms: _382  and  _383
REMARK  160  A    between atoms: _383  and  _384
REMARK  161  A    between atoms: _388  and  _390
REMARK  162  A    between atoms: _390  and  _391
REMARK  163  A    between atoms: _390  and  _393
REMARK  164  A    between atoms: _393  and  _394
REMARK  165  A    between atoms: _394  and  _395
REMARK  166  A    between atoms: _397  and  _399
REMARK  167  A    between atoms: _399  and  _400
REMARK  168  A    between atoms: _399  and  _402
REMARK  169  A    between atoms: _402  and  _403
REMARK  170  A    between atoms: _406  and  _408
REMARK  171  A    between atoms: _408  and  _409
REMARK  172  A    between atoms: _411  and  _413
REMARK  173  A    between atoms: _413  and  _414
REMARK  174  A    between atoms: _416  and  _418
REMARK  175  A    between atoms: _418  and  _419
REMARK  176  A    between atoms: _418  and  _421
REMARK  177  A    between atoms: _421  and  _422
REMARK  178  A    between atoms: _425  and  _427
REMARK  179  A    between atoms: _427  and  _428
REMARK  180  A    between atoms: _430  and  _432
REMARK  181  A    between atoms: _432  and  _433
REMARK  182  A    between atoms: _435  and  _437
REMARK  183  A    between atoms: _437  and  _438
REMARK  184  A    between atoms: _437  and  _440
REMARK  185  A    between atoms: _440  and  _441
REMARK  186  A    between atoms: _447  and  _449
REMARK  187  A    between atoms: _449  and  _450
REMARK  188  A    between atoms: _449  and  _452
REMARK  189  A    between atoms: _452  and  _453
REMARK  190  A    between atoms: _456  and  _458
REMARK  191  A    between atoms: _458  and  _459
REMARK  192  A    between atoms: _458  and  _461
REMARK  193  A    between atoms: _464  and  _466
REMARK  194  A    between atoms: _466  and  _467
REMARK  195  A    between atoms: _466  and  _469
REMARK  196  A    between atoms: _469  and  _470
REMARK  197  A    between atoms: _473  and  _475
REMARK  198  A    between atoms: _475  and  _476
REMARK  199  A    between atoms: _475  and  _478
REMARK  200  A    between atoms: _478  and  _479
REMARK  201  A    between atoms: _483  and  _484
REMARK  202  A    between atoms: _489  and  _491
REMARK  203  A    between atoms: _491  and  _492
REMARK  204  A    between atoms: _491  and  _494
REMARK  205  A    between atoms: _497  and  _499
REMARK  206  A    between atoms: _499  and  _500
REMARK  207  A    between atoms: _499  and  _502
REMARK  208  A    between atoms: _502  and  _503
REMARK  209  A    between atoms: _508  and  _510
REMARK  210  A    between atoms: _510  and  _511
REMARK  211  A    between atoms: _510  and  _513
REMARK  212  A    between atoms: _513  and  _514
REMARK  213  A    between atoms: _517  and  _519
REMARK  214  A    between atoms: _519  and  _520
REMARK  215  A    between atoms: _519  and  _522
REMARK  216  A    between atoms: _522  and  _523
REMARK  217  A    between atoms: _526  and  _528
REMARK  218  A    between atoms: _528  and  _529
REMARK  219  A    between atoms: _531  and  _533
REMARK  220  A    between atoms: _533  and  _534
REMARK  221  A    between atoms: _533  and  _536
REMARK  222  A    between atoms: _536  and  _537
REMARK  223  A    between atoms: _537  and  _538
REMARK  224  A    between atoms: _538  and  _539
REMARK                            x       y       z     vdW  Elec       q    Type
REMARK                         _______ _______ _______ _____ _____    ______ ____
ROOT
ATOM      1  O   HOH     1       5.093  -4.856  20.958  0.00  0.00    +0.000 OA
ENDROOT
TORSDOF 0
REMARK  Name = ../refined-set-2016/1hih/1hih_pocket.pdb
REMARK  224 active torsions:
REMARK  status: ('A' for Active; 'I' for Inactive)
REMARK    1  A    between atoms: _1  and  _3
REMARK    2  A    between atoms: _3  and  _4
REMARK    3  A    between atoms: _3  and  _6
REMARK    4  A    between atoms: _6  and  _7
REMARK    5  A    between atoms: _7  and  _8
REMARK    6  A    between atoms: _8  and  _9
REMARK    7  A    between atoms: _18  and  _20
REMARK    8  A    between atoms: _20  and  _21
REMARK    9  A    between atoms: _20  and  _23
REMARK   10  A    between atoms: _23  and  _24
REMARK   11  A    between atoms: _27  and  _29
REMARK   12  A    between atoms: _29  and  _30
REMARK   13  A    between atoms: _29  and  _32
REMARK   14  A    between atoms: _32  and  _33
REMARK   15  A    between atoms: _36  and  _38
REMARK   16  A    between atoms: _38  and  _39
REMARK   17  A    between atoms: _38  and  _41
REMARK   18  A    between atoms: _41  and  _42
REMARK   19  A    between atoms: _45  and  _47
REMARK   20  A    between atoms: _47  and  _48
REMARK   21  A    between atoms: _47  and  _50
REMARK   22  A    between atoms: _50  and  _51
REMARK   23  A    between atoms: _54  and  _56
REMARK   24  A    between atoms: _56  and  _57
REMARK   25  A    between atoms: _59  and  _61
REMARK   26  A    between atoms: _61  and  _62
REMARK   27  A    between atoms: _65  and  _67
REMARK   28  A    between atoms: _67  and  _68
REMARK   29  A    between atoms: _67  and  _70
REMARK   30  A    between atoms: _70  and  _71
REMARK   31  A    between atoms: _74  and  _76
REMARK   32  A    between atoms: _76  and  _77
REMARK   33  A    between atoms: _76  and  _79
REMARK   34  A    between atoms: _79  and  _80
REMARK   35  A    between atoms: _83  and  _85
REMARK   36  A    between atoms: _85  and  _86
REMARK   37  A    between atoms: _85  and  _88
REMARK   38  A    between atoms: _88  and  _89
REMARK   39  A    between atoms: _92  and  _94
REMARK   40  A    between atoms: _94  and  _95
REMARK   41  A    between atoms: _94  and  _97
REMARK   42  A    between atoms: _100  and  _102
REMARK   43  A    between atoms: _102  and  _103
REMARK   44  A    between atoms: _102  and  _105
REMARK   45  A    between atoms: _105  and  _106
REMARK   46  A    between atoms: _106  and  _107
REMARK   47  A    between atoms: _107  and  _108
REMARK   48  A    between atoms: _108  and  _109
REMARK   49  A    between atoms: _113  and  _115
REMARK   50  A    between atoms: _115  and  _116
REMARK   51  A    between atoms: _115  and  _118
REMARK   52  A    between atoms: _118  and  _119
REMARK   53  A    between atoms: _122  and  _124
REMARK   54  A    between atoms: _124  and  _125
REMARK   55  A    between atoms: _127  and  _129
REMARK   56  A    between atoms: _129  and  _130
REMARK   57  A    between atoms: _132  and  _134
REMARK   58  A    between atoms: _134  and  _135
REMARK   59  A    between atoms: _134  and  _137
REMARK   60  A    between atoms: _137  and  _138
REMARK   61  A    between atoms: _141  and  _143
REMARK   62  A    between atoms: _143  and  _144
REMARK   63  A    between atoms: _146  and  _148
REMARK   64  A    between atoms: _148  and  _149
REMARK   65  A    between atoms: _151  and  _153
REMARK   66  A    between atoms: _153  and  _154
REMARK   67  A    between atoms: _153  and  _156
REMARK   68  A    between atoms: _156  and  _157
REMARK   69  A    between atoms: _163  and  _165
REMARK   70  A    between atoms: _165  and  _166
REMARK   71  A    between atoms: _165  and  _168
REMARK   72  A    between atoms: _168  and  _169
REMARK   73  A    between atoms: _172  and  _174
REMARK   74  A    between atoms: _174  and  _175
REMARK   75  A    between atoms: _174  and  _177
REMARK   76  A    between atoms: _177  and  _178
REMARK   77  A    between atoms: _181  and  _183
REMARK   78  A    between atoms: _183  and  _184
REMARK   79  A    between atoms: _183  and  _186
REMARK   80  A    between atoms: _186  and  _187
REMARK   81  A    between atoms: _191  and  _192
REMARK   82  A    between atoms: _197  and  _199
REMARK   83  A    between atoms: _199  and  _200
REMARK   84  A    between atoms: _199  and  _202
REMARK   85  A    between atoms: _205  and  _207
REMARK   86  A    between atoms: _207  and  _208
REMARK   87  A    between atoms: _207  and  _210
REMARK   88  A    between atoms: _210  and  _211
REMARK   89  A    between atoms: _216  and  _218
REMARK   90  A    between atoms: _218  and  _219
REMARK   91  A    between atoms: _218  and  _221
REMARK   92  A    between atoms: _221  and  _222
REMARK   93  A    between atoms: _225  and  _227
REMARK   94  A    between atoms: _227  and  _228
REMARK   95  A    between atoms: _227  and  _230
REMARK   96  A    between atoms: _230  and  _231
REMARK   97  A    between atoms: _234  and  _236
REMARK   98  A    between atoms: _236  and  _237
REMARK   99  A    between atoms: _239  and  _241
REMARK  100  A    between atoms: _241  and  _242
REMARK  101  A    between atoms: _241  and  _244
REMARK  102  A    between atoms: _244  and  _245
REMARK  103  A    between atoms: _245  and  _246
REMARK  104  A    between atoms: _246  and  _247
REMARK  105  A    between atoms: _256  and  _258
REMARK  106  A    between atoms: _258  and  _259
REMARK  107  A    between atoms: _258  and  _261
REMARK  108  A    between atoms: _261  and  _262
REMARK  109  A    between atoms: _267  and  _269
REMARK  110  A    between atoms: _269  and  _270
REMARK  111  A    between atoms: _269  and  _272
REMARK  112  A    between atoms: _272  and  _273
REMARK  113  A    between atoms: _273  and  _274
REMARK  114  A    between atoms: _274  and  _275
REMARK  115  A    between atoms: _284  and  _286
REMARK  116  A    between atoms: _286  and  _287
REMARK  117  A    between atoms: _286  and  _289
REMARK  118  A    between atoms: _289  and  _290
REMARK  119  A    between atoms: _293  and  _295
REMARK  120  A    between atoms: _295  and  _296
REMARK  121  A    between atoms: _295  and  _298
REMARK  122  A    between atoms: _298  and  _299
REMARK  123  A    between atoms: _302  and  _304
REMARK  124  A    between atoms: _304  and  _305
REMARK  125  A    between atoms: _304  and  _307
REMARK  126  A    between atoms: _307  and  _308
REMARK  127  A    between atoms: _311  and  _313
REMARK  128  A    between atoms: _313  and  _314
REMARK  129  A    between atoms: _313  and  _316
REMARK  130  A    between atoms: _316  and  _317
REMARK  131  A    between atoms: _320  and  _322
REMARK  132  A    between atoms: _322  and  _323
REMARK  133  A    between atoms: _322  and  _325
REMARK  134  A    between atoms: _325  and  _326
REMARK  135  A    between atoms: _329  and  _331
REMARK  136  A    between atoms: _331  and  _332
REMARK  137  A    between atoms: _334  and  _336
REMARK  138  A    between atoms: _336  and  _337
REMARK  139  A    between atoms: _340  and  _342
REMARK  140  A    between atoms: _342  and  _343
REMARK  141  A    between atoms: _342  and  _345
REMARK  142  A    between atoms: _345  and  _346
REMARK  143  A    between atoms: _349  and  _351
REMARK  144  A    between atoms: _351  and  _352
REMARK  145  A    between atoms: _351  and  _354
REMARK  146  A    between atoms: _354  and  _355
REMARK  147  A    between atoms: _358  and  _360
REMARK  148  A    between atoms: _360  and  _361
REMARK  149  A    between atoms: _360  and  _363
REMARK  150  A    between atoms: _363  and  _364
REMARK  151  A    between atoms: _367  and  _369
REMARK  152  A    between atoms: _369  and  _370
REMARK  153  A    between atoms: _369  and  _372
REMARK  154  A    between atoms: _375  and  _377
REMARK  155  A    between atoms: _377  and  _378
REMARK  156  A    between atoms: _377  and  _380
REMARK  157  A    between atoms: _380  and  _381
REMARK  158  A    between atoms: _381  and  _382
REMARK  159  A    between atoms: _382  and  _383
REMARK  160  A    between atoms: _383  and  _384
REMARK  161  A    between atoms: _388  and  _390
REMARK  162  A    between atoms: _390  and  _391
REMARK  163  A    between atoms: _390  and  _393
REMARK  164  A    between atoms: _393  and  _394
REMARK  165  A    between atoms: _394  and  _395
REMARK  166  A    between atoms: _397  and  _399
REMARK  167  A    between atoms: _399  and  _400
REMARK  168  A    between atoms: _399  and  _402
REMARK  169  A    between atoms: _402  and  _403
REMARK  170  A    between atoms: _406  and  _408
REMARK  171  A    between atoms: _408  and  _409
REMARK  172  A    between atoms: _411  and  _413
REMARK  173  A    between atoms: _413  and  _414
REMARK  174  A    between atoms: _416  and  _418
REMARK  175  A    between atoms: _418  and  _419
REMARK  176  A    between atoms: _418  and  _421
REMARK  177  A    between atoms: _421  and  _422
REMARK  178  A    between atoms: _425  and  _427
REMARK  179  A    between atoms: _427  and  _428
REMARK  180  A    between atoms: _430  and  _432
REMARK  181  A    between atoms: _432  and  _433
REMARK  182  A    between atoms: _435  and  _437
REMARK  183  A    between atoms: _437  and  _438
REMARK  184  A    between atoms: _437  and  _440
REMARK  185  A    between atoms: _440  and  _441
REMARK  186  A    between atoms: _447  and  _449
REMARK  187  A    between atoms: _449  and  _450
REMARK  188  A    between atoms: _449  and  _452
REMARK  189  A    between atoms: _452  and  _453
REMARK  190  A    between atoms: _456  and  _458
REMARK  191  A    between atoms: _458  and  _459
REMARK  192  A    between atoms: _458  and  _461
REMARK  193  A    between atoms: _464  and  _466
REMARK  194  A    between atoms: _466  and  _467
REMARK  195  A    between atoms: _466  and  _469
REMARK  196  A    between atoms: _469  and  _470
REMARK  197  A    between atoms: _473  and  _475
REMARK  198  A    between atoms: _475  and  _476
REMARK  199  A    between atoms: _475  and  _478
REMARK  200  A    between atoms: _478  and  _479
REMARK  201  A    between atoms: _483  and  _484
REMARK  202  A    between atoms: _489  and  _491
REMARK  203  A    between atoms: _491  and  _492
REMARK  204  A    between atoms: _491  and  _494
REMARK  205  A    between atoms: _497  and  _499
REMARK  206  A    between atoms: _499  and  _500
REMARK  207  A    between atoms: _499  and  _502
REMARK  208  A    between atoms: _502  and  _503
REMARK  209  A    between atoms: _508  and  _510
REMARK  210  A    between atoms: _510  and  _511
REMARK  211  A    between atoms: _510  and  _513
REMARK  212  A    between atoms: _513  and  _514
REMARK  213  A    between atoms: _517  and  _519
REMARK  214  A    between atoms: _519  and  _520
REMARK  215  A    between atoms: _519  and  _522
REMARK  216  A    between atoms: _522  and  _523
REMARK  217  A    between atoms: _526  and  _528
REMARK  218  A    between atoms: _528  and  _529
REMARK  219  A    between atoms: _531  and  _533
REMARK  220  A    between atoms: _533  and  _534
REMARK  221  A    between atoms: _533  and  _536
REMARK  222  A    between atoms: _536  and  _537
REMARK  223  A    between atoms: _537  and  _538
REMARK  224  A    between atoms: _538  and  _539
REMARK                            x       y       z     vdW  Elec       q    Type
REMARK                         _______ _______ _______ _____ _____    ______ ____
ROOT
ATOM      1  O   HOH     1       5.243  -3.311  23.165  0.00  0.00    +0.000 OA
ENDROOT
TORSDOF 0
REMARK  Name = ../refined-set-2016/1hih/1hih_pocket.pdb
REMARK  224 active torsions:
REMARK  status: ('A' for Active; 'I' for Inactive)
REMARK    1  A    between atoms: _1  and  _3
REMARK    2  A    between atoms: _3  and  _4
REMARK    3  A    between atoms: _3  and  _6
REMARK    4  A    between atoms: _6  and  _7
REMARK    5  A    between atoms: _7  and  _8
REMARK    6  A    between atoms: _8  and  _9
REMARK    7  A    between atoms: _18  and  _20
REMARK    8  A    between atoms: _20  and  _21
REMARK    9  A    between atoms: _20  and  _23
REMARK   10  A    between atoms: _23  and  _24
REMARK   11  A    between atoms: _27  and  _29
REMARK   12  A    between atoms: _29  and  _30
REMARK   13  A    between atoms: _29  and  _32
REMARK   14  A    between atoms: _32  and  _33
REMARK   15  A    between atoms: _36  and  _38
REMARK   16  A    between atoms: _38  and  _39
REMARK   17  A    between atoms: _38  and  _41
REMARK   18  A    between atoms: _41  and  _42
REMARK   19  A    between atoms: _45  and  _47
REMARK   20  A    between atoms: _47  and  _48
REMARK   21  A    between atoms: _47  and  _50
REMARK   22  A    between atoms: _50  and  _51
REMARK   23  A    between atoms: _54  and  _56
REMARK   24  A    between atoms: _56  and  _57
REMARK   25  A    between atoms: _59  and  _61
REMARK   26  A    between atoms: _61  and  _62
REMARK   27  A    between atoms: _65  and  _67
REMARK   28  A    between atoms: _67  and  _68
REMARK   29  A    between atoms: _67  and  _70
REMARK   30  A    between atoms: _70  and  _71
REMARK   31  A    between atoms: _74  and  _76
REMARK   32  A    between atoms: _76  and  _77
REMARK   33  A    between atoms: _76  and  _79
REMARK   34  A    between atoms: _79  and  _80
REMARK   35  A    between atoms: _83  and  _85
REMARK   36  A    between atoms: _85  and  _86
REMARK   37  A    between atoms: _85  and  _88
REMARK   38  A    between atoms: _88  and  _89
REMARK   39  A    between atoms: _92  and  _94
REMARK   40  A    between atoms: _94  and  _95
REMARK   41  A    between atoms: _94  and  _97
REMARK   42  A    between atoms: _100  and  _102
REMARK   43  A    between atoms: _102  and  _103
REMARK   44  A    between atoms: _102  and  _105
REMARK   45  A    between atoms: _105  and  _106
REMARK   46  A    between atoms: _106  and  _107
REMARK   47  A    between atoms: _107  and  _108
REMARK   48  A    between atoms: _108  and  _109
REMARK   49  A    between atoms: _113  and  _115
REMARK   50  A    between atoms: _115  and  _116
REMARK   51  A    between atoms: _115  and  _118
REMARK   52  A    between atoms: _118  and  _119
REMARK   53  A    between atoms: _122  and  _124
REMARK   54  A    between atoms: _124  and  _125
REMARK   55  A    between atoms: _127  and  _129
REMARK   56  A    between atoms: _129  and  _130
REMARK   57  A    between atoms: _132  and  _134
REMARK   58  A    between atoms: _134  and  _135
REMARK   59  A    between atoms: _134  and  _137
REMARK   60  A    between atoms: _137  and  _138
REMARK   61  A    between atoms: _141  and  _143
REMARK   62  A    between atoms: _143  and  _144
REMARK   63  A    between atoms: _146  and  _148
REMARK   64  A    between atoms: _148  and  _149
REMARK   65  A    between atoms: _151  and  _153
REMARK   66  A    between atoms: _153  and  _154
REMARK   67  A    between atoms: _153  and  _156
REMARK   68  A    between atoms: _156  and  _157
REMARK   69  A    between atoms: _163  and  _165
REMARK   70  A    between atoms: _165  and  _166
REMARK   71  A    between atoms: _165  and  _168
REMARK   72  A    between atoms: _168  and  _169
REMARK   73  A    between atoms: _172  and  _174
REMARK   74  A    between atoms: _174  and  _175
REMARK   75  A    between atoms: _174  and  _177
REMARK   76  A    between atoms: _177  and  _178
REMARK   77  A    between atoms: _181  and  _183
REMARK   78  A    between atoms: _183  and  _184
REMARK   79  A    between atoms: _183  and  _186
REMARK   80  A    between atoms: _186  and  _187
REMARK   81  A    between atoms: _191  and  _192
REMARK   82  A    between atoms: _197  and  _199
REMARK   83  A    between atoms: _199  and  _200
REMARK   84  A    between atoms: _199  and  _202
REMARK   85  A    between atoms: _205  and  _207
REMARK   86  A    between atoms: _207  and  _208
REMARK   87  A    between atoms: _207  and  _210
REMARK   88  A    between atoms: _210  and  _211
REMARK   89  A    between atoms: _216  and  _218
REMARK   90  A    between atoms: _218  and  _219
REMARK   91  A    between atoms: _218  and  _221
REMARK   92  A    between atoms: _221  and  _222
REMARK   93  A    between atoms: _225  and  _227
REMARK   94  A    between atoms: _227  and  _228
REMARK   95  A    between atoms: _227  and  _230
REMARK   96  A    between atoms: _230  and  _231
REMARK   97  A    between atoms: _234  and  _236
REMARK   98  A    between atoms: _236  and  _237
REMARK   99  A    between atoms: _239  and  _241
REMARK  100  A    between atoms: _241  and  _242
REMARK  101  A    between atoms: _241  and  _244
REMARK  102  A    between atoms: _244  and  _245
REMARK  103  A    between atoms: _245  and  _246
REMARK  104  A    between atoms: _246  and  _247
REMARK  105  A    between atoms: _256  and  _258
REMARK  106  A    between atoms: _258  and  _259
REMARK  107  A    between atoms: _258  and  _261
REMARK  108  A    between atoms: _261  and  _262
REMARK  109  A    between atoms: _267  and  _269
REMARK  110  A    between atoms: _269  and  _270
REMARK  111  A    between atoms: _269  and  _272
REMARK  112  A    between atoms: _272  and  _273
REMARK  113  A    between atoms: _273  and  _274
REMARK  114  A    between atoms: _274  and  _275
REMARK  115  A    between atoms: _284  and  _286
REMARK  116  A    between atoms: _286  and  _287
REMARK  117  A    between atoms: _286  and  _289
REMARK  118  A    between atoms: _289  and  _290
REMARK  119  A    between atoms: _293  and  _295
REMARK  120  A    between atoms: _295  and  _296
REMARK  121  A    between atoms: _295  and  _298
REMARK  122  A    between atoms: _298  and  _299
REMARK  123  A    between atoms: _302  and  _304
REMARK  124  A    between atoms: _304  and  _305
REMARK  125  A    between atoms: _304  and  _307
REMARK  126  A    between atoms: _307  and  _308
REMARK  127  A    between atoms: _311  and  _313
REMARK  128  A    between atoms: _313  and  _314
REMARK  129  A    between atoms: _313  and  _316
REMARK  130  A    between atoms: _316  and  _317
REMARK  131  A    between atoms: _320  and  _322
REMARK  132  A    between atoms: _322  and  _323
REMARK  133  A    between atoms: _322  and  _325
REMARK  134  A    between atoms: _325  and  _326
REMARK  135  A    between atoms: _329  and  _331
REMARK  136  A    between atoms: _331  and  _332
REMARK  137  A    between atoms: _334  and  _336
REMARK  138  A    between atoms: _336  and  _337
REMARK  139  A    between atoms: _340  and  _342
REMARK  140  A    between atoms: _342  and  _343
REMARK  141  A    between atoms: _342  and  _345
REMARK  142  A    between atoms: _345  and  _346
REMARK  143  A    between atoms: _349  and  _351
REMARK  144  A    between atoms: _351  and  _352
REMARK  145  A    between atoms: _351  and  _354
REMARK  146  A    between atoms: _354  and  _355
REMARK  147  A    between atoms: _358  and  _360
REMARK  148  A    between atoms: _360  and  _361
REMARK  149  A    between atoms: _360  and  _363
REMARK  150  A    between atoms: _363  and  _364
REMARK  151  A    between atoms: _367  and  _369
REMARK  152  A    between atoms: _369  and  _370
REMARK  153  A    between atoms: _369  and  _372
REMARK  154  A    between atoms: _375  and  _377
REMARK  155  A    between atoms: _377  and  _378
REMARK  156  A    between atoms: _377  and  _380
REMARK  157  A    between atoms: _380  and  _381
REMARK  158  A    between atoms: _381  and  _382
REMARK  159  A    between atoms: _382  and  _383
REMARK  160  A    between atoms: _383  and  _384
REMARK  161  A    between atoms: _388  and  _390
REMARK  162  A    between atoms: _390  and  _391
REMARK  163  A    between atoms: _390  and  _393
REMARK  164  A    between atoms: _393  and  _394
REMARK  165  A    between atoms: _394  and  _395
REMARK  166  A    between atoms: _397  and  _399
REMARK  167  A    between atoms: _399  and  _400
REMARK  168  A    between atoms: _399  and  _402
REMARK  169  A    between atoms: _402  and  _403
REMARK  170  A    between atoms: _406  and  _408
REMARK  171  A    between atoms: _408  and  _409
REMARK  172  A    between atoms: _411  and  _413
REMARK  173  A    between atoms: _413  and  _414
REMARK  174  A    between atoms: _416  and  _418
REMARK  175  A    between atoms: _418  and  _419
REMARK  176  A    between atoms: _418  and  _421
REMARK  177  A    between atoms: _421  and  _422
REMARK  178  A    between atoms: _425  and  _427
REMARK  179  A    between atoms: _427  and  _428
REMARK  180  A    between atoms: _430  and  _432
REMARK  181  A    between atoms: _432  and  _433
REMARK  182  A    between atoms: _435  and  _437
REMARK  183  A    between atoms: _437  and  _438
REMARK  184  A    between atoms: _437  and  _440
REMARK  185  A    between atoms: _440  and  _441
REMARK  186  A    between atoms: _447  and  _449
REMARK  187  A    between atoms: _449  and  _450
REMARK  188  A    between atoms: _449  and  _452
REMARK  189  A    between atoms: _452  and  _453
REMARK  190  A    between atoms: _456  and  _458
REMARK  191  A    between atoms: _458  and  _459
REMARK  192  A    between atoms: _458  and  _461
REMARK  193  A    between atoms: _464  and  _466
REMARK  194  A    between atoms: _466  and  _467
REMARK  195  A    between atoms: _466  and  _469
REMARK  196  A    between atoms: _469  and  _470
REMARK  197  A    between atoms: _473  and  _475
REMARK  198  A    between atoms: _475  and  _476
REMARK  199  A    between atoms: _475  and  _478
REMARK  200  A    between atoms: _478  and  _479
REMARK  201  A    between atoms: _483  and  _484
REMARK  202  A    between atoms: _489  and  _491
REMARK  203  A    between atoms: _491  and  _492
REMARK  204  A    between atoms: _491  and  _494
REMARK  205  A    between atoms: _497  and  _499
REMARK  206  A    between atoms: _499  and  _500
REMARK  207  A    between atoms: _499  and  _502
REMARK  208  A    between atoms: _502  and  _503
REMARK  209  A    between atoms: _508  and  _510
REMARK  210  A    between atoms: _510  and  _511
REMARK  211  A    between atoms: _510  and  _513
REMARK  212  A    between atoms: _513  and  _514
REMARK  213  A    between atoms: _517  and  _519
REMARK  214  A    between atoms: _519  and  _520
REMARK  215  A    between atoms: _519  and  _522
REMARK  216  A    between atoms: _522  and  _523
REMARK  217  A    between atoms: _526  and  _528
REMARK  218  A    between atoms: _528  and  _529
REMARK  219  A    between atoms: _531  and  _533
REMARK  220  A    between atoms: _533  and  _534
REMARK  221  A    between atoms: _533  and  _536
REMARK  222  A    between atoms: _536  and  _537
REMARK  223  A    between atoms: _537  and  _538
REMARK  224  A    between atoms: _538  and  _539
REMARK                            x       y       z     vdW  Elec       q    Type
REMARK                         _______ _______ _______ _____ _____    ______ ____
ROOT
ATOM      1  O   HOH     1      16.102  -5.895  21.041  0.00  0.00    +0.000 OA
ENDROOT
TORSDOF 0
REMARK  Name = ../refined-set-2016/1hih/1hih_pocket.pdb
REMARK  224 active torsions:
REMARK  status: ('A' for Active; 'I' for Inactive)
REMARK    1  A    between atoms: _1  and  _3
REMARK    2  A    between atoms: _3  and  _4
REMARK    3  A    between atoms: _3  and  _6
REMARK    4  A    between atoms: _6  and  _7
REMARK    5  A    between atoms: _7  and  _8
REMARK    6  A    between atoms: _8  and  _9
REMARK    7  A    between atoms: _18  and  _20
REMARK    8  A    between atoms: _20  and  _21
REMARK    9  A    between atoms: _20  and  _23
REMARK   10  A    between atoms: _23  and  _24
REMARK   11  A    between atoms: _27  and  _29
REMARK   12  A    between atoms: _29  and  _30
REMARK   13  A    between atoms: _29  and  _32
REMARK   14  A    between atoms: _32  and  _33
REMARK   15  A    between atoms: _36  and  _38
REMARK   16  A    between atoms: _38  and  _39
REMARK   17  A    between atoms: _38  and  _41
REMARK   18  A    between atoms: _41  and  _42
REMARK   19  A    between atoms: _45  and  _47
REMARK   20  A    between atoms: _47  and  _48
REMARK   21  A    between atoms: _47  and  _50
REMARK   22  A    between atoms: _50  and  _51
REMARK   23  A    between atoms: _54  and  _56
REMARK   24  A    between atoms: _56  and  _57
REMARK   25  A    between atoms: _59  and  _61
REMARK   26  A    between atoms: _61  and  _62
REMARK   27  A    between atoms: _65  and  _67
REMARK   28  A    between atoms: _67  and  _68
REMARK   29  A    between atoms: _67  and  _70
REMARK   30  A    between atoms: _70  and  _71
REMARK   31  A    between atoms: _74  and  _76
REMARK   32  A    between atoms: _76  and  _77
REMARK   33  A    between atoms: _76  and  _79
REMARK   34  A    between atoms: _79  and  _80
REMARK   35  A    between atoms: _83  and  _85
REMARK   36  A    between atoms: _85  and  _86
REMARK   37  A    between atoms: _85  and  _88
REMARK   38  A    between atoms: _88  and  _89
REMARK   39  A    between atoms: _92  and  _94
REMARK   40  A    between atoms: _94  and  _95
REMARK   41  A    between atoms: _94  and  _97
REMARK   42  A    between atoms: _100  and  _102
REMARK   43  A    between atoms: _102  and  _103
REMARK   44  A    between atoms: _102  and  _105
REMARK   45  A    between atoms: _105  and  _106
REMARK   46  A    between atoms: _106  and  _107
REMARK   47  A    between atoms: _107  and  _108
REMARK   48  A    between atoms: _108  and  _109
REMARK   49  A    between atoms: _113  and  _115
REMARK   50  A    between atoms: _115  and  _116
REMARK   51  A    between atoms: _115  and  _118
REMARK   52  A    between atoms: _118  and  _119
REMARK   53  A    between atoms: _122  and  _124
REMARK   54  A    between atoms: _124  and  _125
REMARK   55  A    between atoms: _127  and  _129
REMARK   56  A    between atoms: _129  and  _130
REMARK   57  A    between atoms: _132  and  _134
REMARK   58  A    between atoms: _134  and  _135
REMARK   59  A    between atoms: _134  and  _137
REMARK   60  A    between atoms: _137  and  _138
REMARK   61  A    between atoms: _141  and  _143
REMARK   62  A    between atoms: _143  and  _144
REMARK   63  A    between atoms: _146  and  _148
REMARK   64  A    between atoms: _148  and  _149
REMARK   65  A    between atoms: _151  and  _153
REMARK   66  A    between atoms: _153  and  _154
REMARK   67  A    between atoms: _153  and  _156
REMARK   68  A    between atoms: _156  and  _157
REMARK   69  A    between atoms: _163  and  _165
REMARK   70  A    between atoms: _165  and  _166
REMARK   71  A    between atoms: _165  and  _168
REMARK   72  A    between atoms: _168  and  _169
REMARK   73  A    between atoms: _172  and  _174
REMARK   74  A    between atoms: _174  and  _175
REMARK   75  A    between atoms: _174  and  _177
REMARK   76  A    between atoms: _177  and  _178
REMARK   77  A    between atoms: _181  and  _183
REMARK   78  A    between atoms: _183  and  _184
REMARK   79  A    between atoms: _183  and  _186
REMARK   80  A    between atoms: _186  and  _187
REMARK   81  A    between atoms: _191  and  _192
REMARK   82  A    between atoms: _197  and  _199
REMARK   83  A    between atoms: _199  and  _200
REMARK   84  A    between atoms: _199  and  _202
REMARK   85  A    between atoms: _205  and  _207
REMARK   86  A    between atoms: _207  and  _208
REMARK   87  A    between atoms: _207  and  _210
REMARK   88  A    between atoms: _210  and  _211
REMARK   89  A    between atoms: _216  and  _218
REMARK   90  A    between atoms: _218  and  _219
REMARK   91  A    between atoms: _218  and  _221
REMARK   92  A    between atoms: _221  and  _222
REMARK   93  A    between atoms: _225  and  _227
REMARK   94  A    between atoms: _227  and  _228
REMARK   95  A    between atoms: _227  and  _230
REMARK   96  A    between atoms: _230  and  _231
REMARK   97  A    between atoms: _234  and  _236
REMARK   98  A    between atoms: _236  and  _237
REMARK   99  A    between atoms: _239  and  _241
REMARK  100  A    between atoms: _241  and  _242
REMARK  101  A    between atoms: _241  and  _244
REMARK  102  A    between atoms: _244  and  _245
REMARK  103  A    between atoms: _245  and  _246
REMARK  104  A    between atoms: _246  and  _247
REMARK  105  A    between atoms: _256  and  _258
REMARK  106  A    between atoms: _258  and  _259
REMARK  107  A    between atoms: _258  and  _261
REMARK  108  A    between atoms: _261  and  _262
REMARK  109  A    between atoms: _267  and  _269
REMARK  110  A    between atoms: _269  and  _270
REMARK  111  A    between atoms: _269  and  _272
REMARK  112  A    between atoms: _272  and  _273
REMARK  113  A    between atoms: _273  and  _274
REMARK  114  A    between atoms: _274  and  _275
REMARK  115  A    between atoms: _284  and  _286
REMARK  116  A    between atoms: _286  and  _287
REMARK  117  A    between atoms: _286  and  _289
REMARK  118  A    between atoms: _289  and  _290
REMARK  119  A    between atoms: _293  and  _295
REMARK  120  A    between atoms: _295  and  _296
REMARK  121  A    between atoms: _295  and  _298
REMARK  122  A    between atoms: _298  and  _299
REMARK  123  A    between atoms: _302  and  _304
REMARK  124  A    between atoms: _304  and  _305
REMARK  125  A    between atoms: _304  and  _307
REMARK  126  A    between atoms: _307  and  _308
REMARK  127  A    between atoms: _311  and  _313
REMARK  128  A    between atoms: _313  and  _314
REMARK  129  A    between atoms: _313  and  _316
REMARK  130  A    between atoms: _316  and  _317
REMARK  131  A    between atoms: _320  and  _322
REMARK  132  A    between atoms: _322  and  _323
REMARK  133  A    between atoms: _322  and  _325
REMARK  134  A    between atoms: _325  and  _326
REMARK  135  A    between atoms: _329  and  _331
REMARK  136  A    between atoms: _331  and  _332
REMARK  137  A    between atoms: _334  and  _336
REMARK  138  A    between atoms: _336  and  _337
REMARK  139  A    between atoms: _340  and  _342
REMARK  140  A    between atoms: _342  and  _343
REMARK  141  A    between atoms: _342  and  _345
REMARK  142  A    between atoms: _345  and  _346
REMARK  143  A    between atoms: _349  and  _351
REMARK  144  A    between atoms: _351  and  _352
REMARK  145  A    between atoms: _351  and  _354
REMARK  146  A    between atoms: _354  and  _355
REMARK  147  A    between atoms: _358  and  _360
REMARK  148  A    between atoms: _360  and  _361
REMARK  149  A    between atoms: _360  and  _363
REMARK  150  A    between atoms: _363  and  _364
REMARK  151  A    between atoms: _367  and  _369
REMARK  152  A    between atoms: _369  and  _370
REMARK  153  A    between atoms: _369  and  _372
REMARK  154  A    between atoms: _375  and  _377
REMARK  155  A    between atoms: _377  and  _378
REMARK  156  A    between atoms: _377  and  _380
REMARK  157  A    between atoms: _380  and  _381
REMARK  158  A    between atoms: _381  and  _382
REMARK  159  A    between atoms: _382  and  _383
REMARK  160  A    between atoms: _383  and  _384
REMARK  161  A    between atoms: _388  and  _390
REMARK  162  A    between atoms: _390  and  _391
REMARK  163  A    between atoms: _390  and  _393
REMARK  164  A    between atoms: _393  and  _394
REMARK  165  A    between atoms: _394  and  _395
REMARK  166  A    between atoms: _397  and  _399
REMARK  167  A    between atoms: _399  and  _400
REMARK  168  A    between atoms: _399  and  _402
REMARK  169  A    between atoms: _402  and  _403
REMARK  170  A    between atoms: _406  and  _408
REMARK  171  A    between atoms: _408  and  _409
REMARK  172  A    between atoms: _411  and  _413
REMARK  173  A    between atoms: _413  and  _414
REMARK  174  A    between atoms: _416  and  _418
REMARK  175  A    between atoms: _418  and  _419
REMARK  176  A    between atoms: _418  and  _421
REMARK  177  A    between atoms: _421  and  _422
REMARK  178  A    between atoms: _425  and  _427
REMARK  179  A    between atoms: _427  and  _428
REMARK  180  A    between atoms: _430  and  _432
REMARK  181  A    between atoms: _432  and  _433
REMARK  182  A    between atoms: _435  and  _437
REMARK  183  A    between atoms: _437  and  _438
REMARK  184  A    between atoms: _437  and  _440
REMARK  185  A    between atoms: _440  and  _441
REMARK  186  A    between atoms: _447  and  _449
REMARK  187  A    between atoms: _449  and  _450
REMARK  188  A    between atoms: _449  and  _452
REMARK  189  A    between atoms: _452  and  _453
REMARK  190  A    between atoms: _456  and  _458
REMARK  191  A    between atoms: _458  and  _459
REMARK  192  A    between atoms: _458  and  _461
REMARK  193  A    between atoms: _464  and  _466
REMARK  194  A    between atoms: _466  and  _467
REMARK  195  A    between atoms: _466  and  _469
REMARK  196  A    between atoms: _469  and  _470
REMARK  197  A    between atoms: _473  and  _475
REMARK  198  A    between atoms: _475  and  _476
REMARK  199  A    between atoms: _475  and  _478
REMARK  200  A    between atoms: _478  and  _479
REMARK  201  A    between atoms: _483  and  _484
REMARK  202  A    between atoms: _489  and  _491
REMARK  203  A    between atoms: _491  and  _492
REMARK  204  A    between atoms: _491  and  _494
REMARK  205  A    between atoms: _497  and  _499
REMARK  206  A    between atoms: _499  and  _500
REMARK  207  A    between atoms: _499  and  _502
REMARK  208  A    between atoms: _502  and  _503
REMARK  209  A    between atoms: _508  and  _510
REMARK  210  A    between atoms: _510  and  _511
REMARK  211  A    between atoms: _510  and  _513
REMARK  212  A    between atoms: _513  and  _514
REMARK  213  A    between atoms: _517  and  _519
REMARK  214  A    between atoms: _519  and  _520
REMARK  215  A    between atoms: _519  and  _522
REMARK  216  A    between atoms: _522  and  _523
REMARK  217  A    between atoms: _526  and  _528
REMARK  218  A    between atoms: _528  and  _529
REMARK  219  A    between atoms: _531  and  _533
REMARK  220  A    between atoms: _533  and  _534
REMARK  221  A    between atoms: _533  and  _536
REMARK  222  A    between atoms: _536  and  _537
REMARK  223  A    between atoms: _537  and  _538
REMARK  224  A    between atoms: _538  and  _539
REMARK                            x       y       z     vdW  Elec       q    Type
REMARK                         _______ _______ _______ _____ _____    ______ ____
ROOT
ATOM      1  O   HOH     1      10.280   8.541  10.230  0.00  0.00    +0.000 OA
ENDROOT
TORSDOF 0
REMARK  Name = ../refined-set-2016/1hih/1hih_pocket.pdb
REMARK  224 active torsions:
REMARK  status: ('A' for Active; 'I' for Inactive)
REMARK    1  A    between atoms: _1  and  _3
REMARK    2  A    between atoms: _3  and  _4
REMARK    3  A    between atoms: _3  and  _6
REMARK    4  A    between atoms: _6  and  _7
REMARK    5  A    between atoms: _7  and  _8
REMARK    6  A    between atoms: _8  and  _9
REMARK    7  A    between atoms: _18  and  _20
REMARK    8  A    between atoms: _20  and  _21
REMARK    9  A    between atoms: _20  and  _23
REMARK   10  A    between atoms: _23  and  _24
REMARK   11  A    between atoms: _27  and  _29
REMARK   12  A    between atoms: _29  and  _30
REMARK   13  A    between atoms: _29  and  _32
REMARK   14  A    between atoms: _32  and  _33
REMARK   15  A    between atoms: _36  and  _38
REMARK   16  A    between atoms: _38  and  _39
REMARK   17  A    between atoms: _38  and  _41
REMARK   18  A    between atoms: _41  and  _42
REMARK   19  A    between atoms: _45  and  _47
REMARK   20  A    between atoms: _47  and  _48
REMARK   21  A    between atoms: _47  and  _50
REMARK   22  A    between atoms: _50  and  _51
REMARK   23  A    between atoms: _54  and  _56
REMARK   24  A    between atoms: _56  and  _57
REMARK   25  A    between atoms: _59  and  _61
REMARK   26  A    between atoms: _61  and  _62
REMARK   27  A    between atoms: _65  and  _67
REMARK   28  A    between atoms: _67  and  _68
REMARK   29  A    between atoms: _67  and  _70
REMARK   30  A    between atoms: _70  and  _71
REMARK   31  A    between atoms: _74  and  _76
REMARK   32  A    between atoms: _76  and  _77
REMARK   33  A    between atoms: _76  and  _79
REMARK   34  A    between atoms: _79  and  _80
REMARK   35  A    between atoms: _83  and  _85
REMARK   36  A    between atoms: _85  and  _86
REMARK   37  A    between atoms: _85  and  _88
REMARK   38  A    between atoms: _88  and  _89
REMARK   39  A    between atoms: _92  and  _94
REMARK   40  A    between atoms: _94  and  _95
REMARK   41  A    between atoms: _94  and  _97
REMARK   42  A    between atoms: _100  and  _102
REMARK   43  A    between atoms: _102  and  _103
REMARK   44  A    between atoms: _102  and  _105
REMARK   45  A    between atoms: _105  and  _106
REMARK   46  A    between atoms: _106  and  _107
REMARK   47  A    between atoms: _107  and  _108
REMARK   48  A    between atoms: _108  and  _109
REMARK   49  A    between atoms: _113  and  _115
REMARK   50  A    between atoms: _115  and  _116
REMARK   51  A    between atoms: _115  and  _118
REMARK   52  A    between atoms: _118  and  _119
REMARK   53  A    between atoms: _122  and  _124
REMARK   54  A    between atoms: _124  and  _125
REMARK   55  A    between atoms: _127  and  _129
REMARK   56  A    between atoms: _129  and  _130
REMARK   57  A    between atoms: _132  and  _134
REMARK   58  A    between atoms: _134  and  _135
REMARK   59  A    between atoms: _134  and  _137
REMARK   60  A    between atoms: _137  and  _138
REMARK   61  A    between atoms: _141  and  _143
REMARK   62  A    between atoms: _143  and  _144
REMARK   63  A    between atoms: _146  and  _148
REMARK   64  A    between atoms: _148  and  _149
REMARK   65  A    between atoms: _151  and  _153
REMARK   66  A    between atoms: _153  and  _154
REMARK   67  A    between atoms: _153  and  _156
REMARK   68  A    between atoms: _156  and  _157
REMARK   69  A    between atoms: _163  and  _165
REMARK   70  A    between atoms: _165  and  _166
REMARK   71  A    between atoms: _165  and  _168
REMARK   72  A    between atoms: _168  and  _169
REMARK   73  A    between atoms: _172  and  _174
REMARK   74  A    between atoms: _174  and  _175
REMARK   75  A    between atoms: _174  and  _177
REMARK   76  A    between atoms: _177  and  _178
REMARK   77  A    between atoms: _181  and  _183
REMARK   78  A    between atoms: _183  and  _184
REMARK   79  A    between atoms: _183  and  _186
REMARK   80  A    between atoms: _186  and  _187
REMARK   81  A    between atoms: _191  and  _192
REMARK   82  A    between atoms: _197  and  _199
REMARK   83  A    between atoms: _199  and  _200
REMARK   84  A    between atoms: _199  and  _202
REMARK   85  A    between atoms: _205  and  _207
REMARK   86  A    between atoms: _207  and  _208
REMARK   87  A    between atoms: _207  and  _210
REMARK   88  A    between atoms: _210  and  _211
REMARK   89  A    between atoms: _216  and  _218
REMARK   90  A    between atoms: _218  and  _219
REMARK   91  A    between atoms: _218  and  _221
REMARK   92  A    between atoms: _221  and  _222
REMARK   93  A    between atoms: _225  and  _227
REMARK   94  A    between atoms: _227  and  _228
REMARK   95  A    between atoms: _227  and  _230
REMARK   96  A    between atoms: _230  and  _231
REMARK   97  A    between atoms: _234  and  _236
REMARK   98  A    between atoms: _236  and  _237
REMARK   99  A    between atoms: _239  and  _241
REMARK  100  A    between atoms: _241  and  _242
REMARK  101  A    between atoms: _241  and  _244
REMARK  102  A    between atoms: _244  and  _245
REMARK  103  A    between atoms: _245  and  _246
REMARK  104  A    between atoms: _246  and  _247
REMARK  105  A    between atoms: _256  and  _258
REMARK  106  A    between atoms: _258  and  _259
REMARK  107  A    between atoms: _258  and  _261
REMARK  108  A    between atoms: _261  and  _262
REMARK  109  A    between atoms: _267  and  _269
REMARK  110  A    between atoms: _269  and  _270
REMARK  111  A    between atoms: _269  and  _272
REMARK  112  A    between atoms: _272  and  _273
REMARK  113  A    between atoms: _273  and  _274
REMARK  114  A    between atoms: _274  and  _275
REMARK  115  A    between atoms: _284  and  _286
REMARK  116  A    between atoms: _286  and  _287
REMARK  117  A    between atoms: _286  and  _289
REMARK  118  A    between atoms: _289  and  _290
REMARK  119  A    between atoms: _293  and  _295
REMARK  120  A    between atoms: _295  and  _296
REMARK  121  A    between atoms: _295  and  _298
REMARK  122  A    between atoms: _298  and  _299
REMARK  123  A    between atoms: _302  and  _304
REMARK  124  A    between atoms: _304  and  _305
REMARK  125  A    between atoms: _304  and  _307
REMARK  126  A    between atoms: _307  and  _308
REMARK  127  A    between atoms: _311  and  _313
REMARK  128  A    between atoms: _313  and  _314
REMARK  129  A    between atoms: _313  and  _316
REMARK  130  A    between atoms: _316  and  _317
REMARK  131  A    between atoms: _320  and  _322
REMARK  132  A    between atoms: _322  and  _323
REMARK  133  A    between atoms: _322  and  _325
REMARK  134  A    between atoms: _325  and  _326
REMARK  135  A    between atoms: _329  and  _331
REMARK  136  A    between atoms: _331  and  _332
REMARK  137  A    between atoms: _334  and  _336
REMARK  138  A    between atoms: _336  and  _337
REMARK  139  A    between atoms: _340  and  _342
REMARK  140  A    between atoms: _342  and  _343
REMARK  141  A    between atoms: _342  and  _345
REMARK  142  A    between atoms: _345  and  _346
REMARK  143  A    between atoms: _349  and  _351
REMARK  144  A    between atoms: _351  and  _352
REMARK  145  A    between atoms: _351  and  _354
REMARK  146  A    between atoms: _354  and  _355
REMARK  147  A    between atoms: _358  and  _360
REMARK  148  A    between atoms: _360  and  _361
REMARK  149  A    between atoms: _360  and  _363
REMARK  150  A    between atoms: _363  and  _364
REMARK  151  A    between atoms: _367  and  _369
REMARK  152  A    between atoms: _369  and  _370
REMARK  153  A    between atoms: _369  and  _372
REMARK  154  A    between atoms: _375  and  _377
REMARK  155  A    between atoms: _377  and  _378
REMARK  156  A    between atoms: _377  and  _380
REMARK  157  A    between atoms: _380  and  _381
REMARK  158  A    between atoms: _381  and  _382
REMARK  159  A    between atoms: _382  and  _383
REMARK  160  A    between atoms: _383  and  _384
REMARK  161  A    between atoms: _388  and  _390
REMARK  162  A    between atoms: _390  and  _391
REMARK  163  A    between atoms: _390  and  _393
REMARK  164  A    between atoms: _393  and  _394
REMARK  165  A    between atoms: _394  and  _395
REMARK  166  A    between atoms: _397  and  _399
REMARK  167  A    between atoms: _399  and  _400
REMARK  168  A    between atoms: _399  and  _402
REMARK  169  A    between atoms: _402  and  _403
REMARK  170  A    between atoms: _406  and  _408
REMARK  171  A    between atoms: _408  and  _409
REMARK  172  A    between atoms: _411  and  _413
REMARK  173  A    between atoms: _413  and  _414
REMARK  174  A    between atoms: _416  and  _418
REMARK  175  A    between atoms: _418  and  _419
REMARK  176  A    between atoms: _418  and  _421
REMARK  177  A    between atoms: _421  and  _422
REMARK  178  A    between atoms: _425  and  _427
REMARK  179  A    between atoms: _427  and  _428
REMARK  180  A    between atoms: _430  and  _432
REMARK  181  A    between atoms: _432  and  _433
REMARK  182  A    between atoms: _435  and  _437
REMARK  183  A    between atoms: _437  and  _438
REMARK  184  A    between atoms: _437  and  _440
REMARK  185  A    between atoms: _440  and  _441
REMARK  186  A    between atoms: _447  and  _449
REMARK  187  A    between atoms: _449  and  _450
REMARK  188  A    between atoms: _449  and  _452
REMARK  189  A    between atoms: _452  and  _453
REMARK  190  A    between atoms: _456  and  _458
REMARK  191  A    between atoms: _458  and  _459
REMARK  192  A    between atoms: _458  and  _461
REMARK  193  A    between atoms: _464  and  _466
REMARK  194  A    between atoms: _466  and  _467
REMARK  195  A    between atoms: _466  and  _469
REMARK  196  A    between atoms: _469  and  _470
REMARK  197  A    between atoms: _473  and  _475
REMARK  198  A    between atoms: _475  and  _476
REMARK  199  A    between atoms: _475  and  _478
REMARK  200  A    between atoms: _478  and  _479
REMARK  201  A    between atoms: _483  and  _484
REMARK  202  A    between atoms: _489  and  _491
REMARK  203  A    between atoms: _491  and  _492
REMARK  204  A    between atoms: _491  and  _494
REMARK  205  A    between atoms: _497  and  _499
REMARK  206  A    between atoms: _499  and  _500
REMARK  207  A    between atoms: _499  and  _502
REMARK  208  A    between atoms: _502  and  _503
REMARK  209  A    between atoms: _508  and  _510
REMARK  210  A    between atoms: _510  and  _511
REMARK  211  A    between atoms: _510  and  _513
REMARK  212  A    between atoms: _513  and  _514
REMARK  213  A    between atoms: _517  and  _519
REMARK  214  A    between atoms: _519  and  _520
REMARK  215  A    between atoms: _519  and  _522
REMARK  216  A    between atoms: _522  and  _523
REMARK  217  A    between atoms: _526  and  _528
REMARK  218  A    between atoms: _528  and  _529
REMARK  219  A    between atoms: _531  and  _533
REMARK  220  A    between atoms: _533  and  _534
REMARK  221  A    between atoms: _533  and  _536
REMARK  222  A    between atoms: _536  and  _537
REMARK  223  A    between atoms: _537  and  _538
REMARK  224  A    between atoms: _538  and  _539
REMARK                            x       y       z     vdW  Elec       q    Type
REMARK                         _______ _______ _______ _____ _____    ______ ____
ROOT
ATOM      1  O   HOH     1       8.240 -11.305  16.838  0.00  0.00    +0.000 OA
ENDROOT
TORSDOF 0
REMARK  Name = ../refined-set-2016/1hih/1hih_pocket.pdb
REMARK  224 active torsions:
REMARK  status: ('A' for Active; 'I' for Inactive)
REMARK    1  A    between atoms: _1  and  _3
REMARK    2  A    between atoms: _3  and  _4
REMARK    3  A    between atoms: _3  and  _6
REMARK    4  A    between atoms: _6  and  _7
REMARK    5  A    between atoms: _7  and  _8
REMARK    6  A    between atoms: _8  and  _9
REMARK    7  A    between atoms: _18  and  _20
REMARK    8  A    between atoms: _20  and  _21
REMARK    9  A    between atoms: _20  and  _23
REMARK   10  A    between atoms: _23  and  _24
REMARK   11  A    between atoms: _27  and  _29
REMARK   12  A    between atoms: _29  and  _30
REMARK   13  A    between atoms: _29  and  _32
REMARK   14  A    between atoms: _32  and  _33
REMARK   15  A    between atoms: _36  and  _38
REMARK   16  A    between atoms: _38  and  _39
REMARK   17  A    between atoms: _38  and  _41
REMARK   18  A    between atoms: _41  and  _42
REMARK   19  A    between atoms: _45  and  _47
REMARK   20  A    between atoms: _47  and  _48
REMARK   21  A    between atoms: _47  and  _50
REMARK   22  A    between atoms: _50  and  _51
REMARK   23  A    between atoms: _54  and  _56
REMARK   24  A    between atoms: _56  and  _57
REMARK   25  A    between atoms: _59  and  _61
REMARK   26  A    between atoms: _61  and  _62
REMARK   27  A    between atoms: _65  and  _67
REMARK   28  A    between atoms: _67  and  _68
REMARK   29  A    between atoms: _67  and  _70
REMARK   30  A    between atoms: _70  and  _71
REMARK   31  A    between atoms: _74  and  _76
REMARK   32  A    between atoms: _76  and  _77
REMARK   33  A    between atoms: _76  and  _79
REMARK   34  A    between atoms: _79  and  _80
REMARK   35  A    between atoms: _83  and  _85
REMARK   36  A    between atoms: _85  and  _86
REMARK   37  A    between atoms: _85  and  _88
REMARK   38  A    between atoms: _88  and  _89
REMARK   39  A    between atoms: _92  and  _94
REMARK   40  A    between atoms: _94  and  _95
REMARK   41  A    between atoms: _94  and  _97
REMARK   42  A    between atoms: _100  and  _102
REMARK   43  A    between atoms: _102  and  _103
REMARK   44  A    between atoms: _102  and  _105
REMARK   45  A    between atoms: _105  and  _106
REMARK   46  A    between atoms: _106  and  _107
REMARK   47  A    between atoms: _107  and  _108
REMARK   48  A    between atoms: _108  and  _109
REMARK   49  A    between atoms: _113  and  _115
REMARK   50  A    between atoms: _115  and  _116
REMARK   51  A    between atoms: _115  and  _118
REMARK   52  A    between atoms: _118  and  _119
REMARK   53  A    between atoms: _122  and  _124
REMARK   54  A    between atoms: _124  and  _125
REMARK   55  A    between atoms: _127  and  _129
REMARK   56  A    between atoms: _129  and  _130
REMARK   57  A    between atoms: _132  and  _134
REMARK   58  A    between atoms: _134  and  _135
REMARK   59  A    between atoms: _134  and  _137
REMARK   60  A    between atoms: _137  and  _138
REMARK   61  A    between atoms: _141  and  _143
REMARK   62  A    between atoms: _143  and  _144
REMARK   63  A    between atoms: _146  and  _148
REMARK   64  A    between atoms: _148  and  _149
REMARK   65  A    between atoms: _151  and  _153
REMARK   66  A    between atoms: _153  and  _154
REMARK   67  A    between atoms: _153  and  _156
REMARK   68  A    between atoms: _156  and  _157
REMARK   69  A    between atoms: _163  and  _165
REMARK   70  A    between atoms: _165  and  _166
REMARK   71  A    between atoms: _165  and  _168
REMARK   72  A    between atoms: _168  and  _169
REMARK   73  A    between atoms: _172  and  _174
REMARK   74  A    between atoms: _174  and  _175
REMARK   75  A    between atoms: _174  and  _177
REMARK   76  A    between atoms: _177  and  _178
REMARK   77  A    between atoms: _181  and  _183
REMARK   78  A    between atoms: _183  and  _184
REMARK   79  A    between atoms: _183  and  _186
REMARK   80  A    between atoms: _186  and  _187
REMARK   81  A    between atoms: _191  and  _192
REMARK   82  A    between atoms: _197  and  _199
REMARK   83  A    between atoms: _199  and  _200
REMARK   84  A    between atoms: _199  and  _202
REMARK   85  A    between atoms: _205  and  _207
REMARK   86  A    between atoms: _207  and  _208
REMARK   87  A    between atoms: _207  and  _210
REMARK   88  A    between atoms: _210  and  _211
REMARK   89  A    between atoms: _216  and  _218
REMARK   90  A    between atoms: _218  and  _219
REMARK   91  A    between atoms: _218  and  _221
REMARK   92  A    between atoms: _221  and  _222
REMARK   93  A    between atoms: _225  and  _227
REMARK   94  A    between atoms: _227  and  _228
REMARK   95  A    between atoms: _227  and  _230
REMARK   96  A    between atoms: _230  and  _231
REMARK   97  A    between atoms: _234  and  _236
REMARK   98  A    between atoms: _236  and  _237
REMARK   99  A    between atoms: _239  and  _241
REMARK  100  A    between atoms: _241  and  _242
REMARK  101  A    between atoms: _241  and  _244
REMARK  102  A    between atoms: _244  and  _245
REMARK  103  A    between atoms: _245  and  _246
REMARK  104  A    between atoms: _246  and  _247
REMARK  105  A    between atoms: _256  and  _258
REMARK  106  A    between atoms: _258  and  _259
REMARK  107  A    between atoms: _258  and  _261
REMARK  108  A    between atoms: _261  and  _262
REMARK  109  A    between atoms: _267  and  _269
REMARK  110  A    between atoms: _269  and  _270
REMARK  111  A    between atoms: _269  and  _272
REMARK  112  A    between atoms: _272  and  _273
REMARK  113  A    between atoms: _273  and  _274
REMARK  114  A    between atoms: _274  and  _275
REMARK  115  A    between atoms: _284  and  _286
REMARK  116  A    between atoms: _286  and  _287
REMARK  117  A    between atoms: _286  and  _289
REMARK  118  A    between atoms: _289  and  _290
REMARK  119  A    between atoms: _293  and  _295
REMARK  120  A    between atoms: _295  and  _296
REMARK  121  A    between atoms: _295  and  _298
REMARK  122  A    between atoms: _298  and  _299
REMARK  123  A    between atoms: _302  and  _304
REMARK  124  A    between atoms: _304  and  _305
REMARK  125  A    between atoms: _304  and  _307
REMARK  126  A    between atoms: _307  and  _308
REMARK  127  A    between atoms: _311  and  _313
REMARK  128  A    between atoms: _313  and  _314
REMARK  129  A    between atoms: _313  and  _316
REMARK  130  A    between atoms: _316  and  _317
REMARK  131  A    between atoms: _320  and  _322
REMARK  132  A    between atoms: _322  and  _323
REMARK  133  A    between atoms: _322  and  _325
REMARK  134  A    between atoms: _325  and  _326
REMARK  135  A    between atoms: _329  and  _331
REMARK  136  A    between atoms: _331  and  _332
REMARK  137  A    between atoms: _334  and  _336
REMARK  138  A    between atoms: _336  and  _337
REMARK  139  A    between atoms: _340  and  _342
REMARK  140  A    between atoms: _342  and  _343
REMARK  141  A    between atoms: _342  and  _345
REMARK  142  A    between atoms: _345  and  _346
REMARK  143  A    between atoms: _349  and  _351
REMARK  144  A    between atoms: _351  and  _352
REMARK  145  A    between atoms: _351  and  _354
REMARK  146  A    between atoms: _354  and  _355
REMARK  147  A    between atoms: _358  and  _360
REMARK  148  A    between atoms: _360  and  _361
REMARK  149  A    between atoms: _360  and  _363
REMARK  150  A    between atoms: _363  and  _364
REMARK  151  A    between atoms: _367  and  _369
REMARK  152  A    between atoms: _369  and  _370
REMARK  153  A    between atoms: _369  and  _372
REMARK  154  A    between atoms: _375  and  _377
REMARK  155  A    between atoms: _377  and  _378
REMARK  156  A    between atoms: _377  and  _380
REMARK  157  A    between atoms: _380  and  _381
REMARK  158  A    between atoms: _381  and  _382
REMARK  159  A    between atoms: _382  and  _383
REMARK  160  A    between atoms: _383  and  _384
REMARK  161  A    between atoms: _388  and  _390
REMARK  162  A    between atoms: _390  and  _391
REMARK  163  A    between atoms: _390  and  _393
REMARK  164  A    between atoms: _393  and  _394
REMARK  165  A    between atoms: _394  and  _395
REMARK  166  A    between atoms: _397  and  _399
REMARK  167  A    between atoms: _399  and  _400
REMARK  168  A    between atoms: _399  and  _402
REMARK  169  A    between atoms: _402  and  _403
REMARK  170  A    between atoms: _406  and  _408
REMARK  171  A    between atoms: _408  and  _409
REMARK  172  A    between atoms: _411  and  _413
REMARK  173  A    between atoms: _413  and  _414
REMARK  174  A    between atoms: _416  and  _418
REMARK  175  A    between atoms: _418  and  _419
REMARK  176  A    between atoms: _418  and  _421
REMARK  177  A    between atoms: _421  and  _422
REMARK  178  A    between atoms: _425  and  _427
REMARK  179  A    between atoms: _427  and  _428
REMARK  180  A    between atoms: _430  and  _432
REMARK  181  A    between atoms: _432  and  _433
REMARK  182  A    between atoms: _435  and  _437
REMARK  183  A    between atoms: _437  and  _438
REMARK  184  A    between atoms: _437  and  _440
REMARK  185  A    between atoms: _440  and  _441
REMARK  186  A    between atoms: _447  and  _449
REMARK  187  A    between atoms: _449  and  _450
REMARK  188  A    between atoms: _449  and  _452
REMARK  189  A    between atoms: _452  and  _453
REMARK  190  A    between atoms: _456  and  _458
REMARK  191  A    between atoms: _458  and  _459
REMARK  192  A    between atoms: _458  and  _461
REMARK  193  A    between atoms: _464  and  _466
REMARK  194  A    between atoms: _466  and  _467
REMARK  195  A    between atoms: _466  and  _469
REMARK  196  A    between atoms: _469  and  _470
REMARK  197  A    between atoms: _473  and  _475
REMARK  198  A    between atoms: _475  and  _476
REMARK  199  A    between atoms: _475  and  _478
REMARK  200  A    between atoms: _478  and  _479
REMARK  201  A    between atoms: _483  and  _484
REMARK  202  A    between atoms: _489  and  _491
REMARK  203  A    between atoms: _491  and  _492
REMARK  204  A    between atoms: _491  and  _494
REMARK  205  A    between atoms: _497  and  _499
REMARK  206  A    between atoms: _499  and  _500
REMARK  207  A    between atoms: _499  and  _502
REMARK  208  A    between atoms: _502  and  _503
REMARK  209  A    between atoms: _508  and  _510
REMARK  210  A    between atoms: _510  and  _511
REMARK  211  A    between atoms: _510  and  _513
REMARK  212  A    between atoms: _513  and  _514
REMARK  213  A    between atoms: _517  and  _519
REMARK  214  A    between atoms: _519  and  _520
REMARK  215  A    between atoms: _519  and  _522
REMARK  216  A    between atoms: _522  and  _523
REMARK  217  A    between atoms: _526  and  _528
REMARK  218  A    between atoms: _528  and  _529
REMARK  219  A    between atoms: _531  and  _533
REMARK  220  A    between atoms: _533  and  _534
REMARK  221  A    between atoms: _533  and  _536
REMARK  222  A    between atoms: _536  and  _537
REMARK  223  A    between atoms: _537  and  _538
REMARK  224  A    between atoms: _538  and  _539
REMARK                            x       y       z     vdW  Elec       q    Type
REMARK                         _______ _______ _______ _____ _____    ______ ____
ROOT
ATOM      1  O   HOH     1      11.026  -6.062  25.814  0.00  0.00    +0.000 OA
ENDROOT
TORSDOF 0
REMARK  Name = ../refined-set-2016/1hih/1hih_pocket.pdb
REMARK  224 active torsions:
REMARK  status: ('A' for Active; 'I' for Inactive)
REMARK    1  A    between atoms: _1  and  _3
REMARK    2  A    between atoms: _3  and  _4
REMARK    3  A    between atoms: _3  and  _6
REMARK    4  A    between atoms: _6  and  _7
REMARK    5  A    between atoms: _7  and  _8
REMARK    6  A    between atoms: _8  and  _9
REMARK    7  A    between atoms: _18  and  _20
REMARK    8  A    between atoms: _20  and  _21
REMARK    9  A    between atoms: _20  and  _23
REMARK   10  A    between atoms: _23  and  _24
REMARK   11  A    between atoms: _27  and  _29
REMARK   12  A    between atoms: _29  and  _30
REMARK   13  A    between atoms: _29  and  _32
REMARK   14  A    between atoms: _32  and  _33
REMARK   15  A    between atoms: _36  and  _38
REMARK   16  A    between atoms: _38  and  _39
REMARK   17  A    between atoms: _38  and  _41
REMARK   18  A    between atoms: _41  and  _42
REMARK   19  A    between atoms: _45  and  _47
REMARK   20  A    between atoms: _47  and  _48
REMARK   21  A    between atoms: _47  and  _50
REMARK   22  A    between atoms: _50  and  _51
REMARK   23  A    between atoms: _54  and  _56
REMARK   24  A    between atoms: _56  and  _57
REMARK   25  A    between atoms: _59  and  _61
REMARK   26  A    between atoms: _61  and  _62
REMARK   27  A    between atoms: _65  and  _67
REMARK   28  A    between atoms: _67  and  _68
REMARK   29  A    between atoms: _67  and  _70
REMARK   30  A    between atoms: _70  and  _71
REMARK   31  A    between atoms: _74  and  _76
REMARK   32  A    between atoms: _76  and  _77
REMARK   33  A    between atoms: _76  and  _79
REMARK   34  A    between atoms: _79  and  _80
REMARK   35  A    between atoms: _83  and  _85
REMARK   36  A    between atoms: _85  and  _86
REMARK   37  A    between atoms: _85  and  _88
REMARK   38  A    between atoms: _88  and  _89
REMARK   39  A    between atoms: _92  and  _94
REMARK   40  A    between atoms: _94  and  _95
REMARK   41  A    between atoms: _94  and  _97
REMARK   42  A    between atoms: _100  and  _102
REMARK   43  A    between atoms: _102  and  _103
REMARK   44  A    between atoms: _102  and  _105
REMARK   45  A    between atoms: _105  and  _106
REMARK   46  A    between atoms: _106  and  _107
REMARK   47  A    between atoms: _107  and  _108
REMARK   48  A    between atoms: _108  and  _109
REMARK   49  A    between atoms: _113  and  _115
REMARK   50  A    between atoms: _115  and  _116
REMARK   51  A    between atoms: _115  and  _118
REMARK   52  A    between atoms: _118  and  _119
REMARK   53  A    between atoms: _122  and  _124
REMARK   54  A    between atoms: _124  and  _125
REMARK   55  A    between atoms: _127  and  _129
REMARK   56  A    between atoms: _129  and  _130
REMARK   57  A    between atoms: _132  and  _134
REMARK   58  A    between atoms: _134  and  _135
REMARK   59  A    between atoms: _134  and  _137
REMARK   60  A    between atoms: _137  and  _138
REMARK   61  A    between atoms: _141  and  _143
REMARK   62  A    between atoms: _143  and  _144
REMARK   63  A    between atoms: _146  and  _148
REMARK   64  A    between atoms: _148  and  _149
REMARK   65  A    between atoms: _151  and  _153
REMARK   66  A    between atoms: _153  and  _154
REMARK   67  A    between atoms: _153  and  _156
REMARK   68  A    between atoms: _156  and  _157
REMARK   69  A    between atoms: _163  and  _165
REMARK   70  A    between atoms: _165  and  _166
REMARK   71  A    between atoms: _165  and  _168
REMARK   72  A    between atoms: _168  and  _169
REMARK   73  A    between atoms: _172  and  _174
REMARK   74  A    between atoms: _174  and  _175
REMARK   75  A    between atoms: _174  and  _177
REMARK   76  A    between atoms: _177  and  _178
REMARK   77  A    between atoms: _181  and  _183
REMARK   78  A    between atoms: _183  and  _184
REMARK   79  A    between atoms: _183  and  _186
REMARK   80  A    between atoms: _186  and  _187
REMARK   81  A    between atoms: _191  and  _192
REMARK   82  A    between atoms: _197  and  _199
REMARK   83  A    between atoms: _199  and  _200
REMARK   84  A    between atoms: _199  and  _202
REMARK   85  A    between atoms: _205  and  _207
REMARK   86  A    between atoms: _207  and  _208
REMARK   87  A    between atoms: _207  and  _210
REMARK   88  A    between atoms: _210  and  _211
REMARK   89  A    between atoms: _216  and  _218
REMARK   90  A    between atoms: _218  and  _219
REMARK   91  A    between atoms: _218  and  _221
REMARK   92  A    between atoms: _221  and  _222
REMARK   93  A    between atoms: _225  and  _227
REMARK   94  A    between atoms: _227  and  _228
REMARK   95  A    between atoms: _227  and  _230
REMARK   96  A    between atoms: _230  and  _231
REMARK   97  A    between atoms: _234  and  _236
REMARK   98  A    between atoms: _236  and  _237
REMARK   99  A    between atoms: _239  and  _241
REMARK  100  A    between atoms: _241  and  _242
REMARK  101  A    between atoms: _241  and  _244
REMARK  102  A    between atoms: _244  and  _245
REMARK  103  A    between atoms: _245  and  _246
REMARK  104  A    between atoms: _246  and  _247
REMARK  105  A    between atoms: _256  and  _258
REMARK  106  A    between atoms: _258  and  _259
REMARK  107  A    between atoms: _258  and  _261
REMARK  108  A    between atoms: _261  and  _262
REMARK  109  A    between atoms: _267  and  _269
REMARK  110  A    between atoms: _269  and  _270
REMARK  111  A    between atoms: _269  and  _272
REMARK  112  A    between atoms: _272  and  _273
REMARK  113  A    between atoms: _273  and  _274
REMARK  114  A    between atoms: _274  and  _275
REMARK  115  A    between atoms: _284  and  _286
REMARK  116  A    between atoms: _286  and  _287
REMARK  117  A    between atoms: _286  and  _289
REMARK  118  A    between atoms: _289  and  _290
REMARK  119  A    between atoms: _293  and  _295
REMARK  120  A    between atoms: _295  and  _296
REMARK  121  A    between atoms: _295  and  _298
REMARK  122  A    between atoms: _298  and  _299
REMARK  123  A    between atoms: _302  and  _304
REMARK  124  A    between atoms: _304  and  _305
REMARK  125  A    between atoms: _304  and  _307
REMARK  126  A    between atoms: _307  and  _308
REMARK  127  A    between atoms: _311  and  _313
REMARK  128  A    between atoms: _313  and  _314
REMARK  129  A    between atoms: _313  and  _316
REMARK  130  A    between atoms: _316  and  _317
REMARK  131  A    between atoms: _320  and  _322
REMARK  132  A    between atoms: _322  and  _323
REMARK  133  A    between atoms: _322  and  _325
REMARK  134  A    between atoms: _325  and  _326
REMARK  135  A    between atoms: _329  and  _331
REMARK  136  A    between atoms: _331  and  _332
REMARK  137  A    between atoms: _334  and  _336
REMARK  138  A    between atoms: _336  and  _337
REMARK  139  A    between atoms: _340  and  _342
REMARK  140  A    between atoms: _342  and  _343
REMARK  141  A    between atoms: _342  and  _345
REMARK  142  A    between atoms: _345  and  _346
REMARK  143  A    between atoms: _349  and  _351
REMARK  144  A    between atoms: _351  and  _352
REMARK  145  A    between atoms: _351  and  _354
REMARK  146  A    between atoms: _354  and  _355
REMARK  147  A    between atoms: _358  and  _360
REMARK  148  A    between atoms: _360  and  _361
REMARK  149  A    between atoms: _360  and  _363
REMARK  150  A    between atoms: _363  and  _364
REMARK  151  A    between atoms: _367  and  _369
REMARK  152  A    between atoms: _369  and  _370
REMARK  153  A    between atoms: _369  and  _372
REMARK  154  A    between atoms: _375  and  _377
REMARK  155  A    between atoms: _377  and  _378
REMARK  156  A    between atoms: _377  and  _380
REMARK  157  A    between atoms: _380  and  _381
REMARK  158  A    between atoms: _381  and  _382
REMARK  159  A    between atoms: _382  and  _383
REMARK  160  A    between atoms: _383  and  _384
REMARK  161  A    between atoms: _388  and  _390
REMARK  162  A    between atoms: _390  and  _391
REMARK  163  A    between atoms: _390  and  _393
REMARK  164  A    between atoms: _393  and  _394
REMARK  165  A    between atoms: _394  and  _395
REMARK  166  A    between atoms: _397  and  _399
REMARK  167  A    between atoms: _399  and  _400
REMARK  168  A    between atoms: _399  and  _402
REMARK  169  A    between atoms: _402  and  _403
REMARK  170  A    between atoms: _406  and  _408
REMARK  171  A    between atoms: _408  and  _409
REMARK  172  A    between atoms: _411  and  _413
REMARK  173  A    between atoms: _413  and  _414
REMARK  174  A    between atoms: _416  and  _418
REMARK  175  A    between atoms: _418  and  _419
REMARK  176  A    between atoms: _418  and  _421
REMARK  177  A    between atoms: _421  and  _422
REMARK  178  A    between atoms: _425  and  _427
REMARK  179  A    between atoms: _427  and  _428
REMARK  180  A    between atoms: _430  and  _432
REMARK  181  A    between atoms: _432  and  _433
REMARK  182  A    between atoms: _435  and  _437
REMARK  183  A    between atoms: _437  and  _438
REMARK  184  A    between atoms: _437  and  _440
REMARK  185  A    between atoms: _440  and  _441
REMARK  186  A    between atoms: _447  and  _449
REMARK  187  A    between atoms: _449  and  _450
REMARK  188  A    between atoms: _449  and  _452
REMARK  189  A    between atoms: _452  and  _453
REMARK  190  A    between atoms: _456  and  _458
REMARK  191  A    between atoms: _458  and  _459
REMARK  192  A    between atoms: _458  and  _461
REMARK  193  A    between atoms: _464  and  _466
REMARK  194  A    between atoms: _466  and  _467
REMARK  195  A    between atoms: _466  and  _469
REMARK  196  A    between atoms: _469  and  _470
REMARK  197  A    between atoms: _473  and  _475
REMARK  198  A    between atoms: _475  and  _476
REMARK  199  A    between atoms: _475  and  _478
REMARK  200  A    between atoms: _478  and  _479
REMARK  201  A    between atoms: _483  and  _484
REMARK  202  A    between atoms: _489  and  _491
REMARK  203  A    between atoms: _491  and  _492
REMARK  204  A    between atoms: _491  and  _494
REMARK  205  A    between atoms: _497  and  _499
REMARK  206  A    between atoms: _499  and  _500
REMARK  207  A    between atoms: _499  and  _502
REMARK  208  A    between atoms: _502  and  _503
REMARK  209  A    between atoms: _508  and  _510
REMARK  210  A    between atoms: _510  and  _511
REMARK  211  A    between atoms: _510  and  _513
REMARK  212  A    between atoms: _513  and  _514
REMARK  213  A    between atoms: _517  and  _519
REMARK  214  A    between atoms: _519  and  _520
REMARK  215  A    between atoms: _519  and  _522
REMARK  216  A    between atoms: _522  and  _523
REMARK  217  A    between atoms: _526  and  _528
REMARK  218  A    between atoms: _528  and  _529
REMARK  219  A    between atoms: _531  and  _533
REMARK  220  A    between atoms: _533  and  _534
REMARK  221  A    between atoms: _533  and  _536
REMARK  222  A    between atoms: _536  and  _537
REMARK  223  A    between atoms: _537  and  _538
REMARK  224  A    between atoms: _538  and  _539
REMARK                            x       y       z     vdW  Elec       q    Type
REMARK                         _______ _______ _______ _____ _____    ______ ____
ROOT
ATOM      1  O   HOH     1       5.543 -11.228  16.331  0.00  0.00    +0.000 OA
ENDROOT
TORSDOF 0
REMARK  Name = ../refined-set-2016/1hih/1hih_pocket.pdb
REMARK  224 active torsions:
REMARK  status: ('A' for Active; 'I' for Inactive)
REMARK    1  A    between atoms: _1  and  _3
REMARK    2  A    between atoms: _3  and  _4
REMARK    3  A    between atoms: _3  and  _6
REMARK    4  A    between atoms: _6  and  _7
REMARK    5  A    between atoms: _7  and  _8
REMARK    6  A    between atoms: _8  and  _9
REMARK    7  A    between atoms: _18  and  _20
REMARK    8  A    between atoms: _20  and  _21
REMARK    9  A    between atoms: _20  and  _23
REMARK   10  A    between atoms: _23  and  _24
REMARK   11  A    between atoms: _27  and  _29
REMARK   12  A    between atoms: _29  and  _30
REMARK   13  A    between atoms: _29  and  _32
REMARK   14  A    between atoms: _32  and  _33
REMARK   15  A    between atoms: _36  and  _38
REMARK   16  A    between atoms: _38  and  _39
REMARK   17  A    between atoms: _38  and  _41
REMARK   18  A    between atoms: _41  and  _42
REMARK   19  A    between atoms: _45  and  _47
REMARK   20  A    between atoms: _47  and  _48
REMARK   21  A    between atoms: _47  and  _50
REMARK   22  A    between atoms: _50  and  _51
REMARK   23  A    between atoms: _54  and  _56
REMARK   24  A    between atoms: _56  and  _57
REMARK   25  A    between atoms: _59  and  _61
REMARK   26  A    between atoms: _61  and  _62
REMARK   27  A    between atoms: _65  and  _67
REMARK   28  A    between atoms: _67  and  _68
REMARK   29  A    between atoms: _67  and  _70
REMARK   30  A    between atoms: _70  and  _71
REMARK   31  A    between atoms: _74  and  _76
REMARK   32  A    between atoms: _76  and  _77
REMARK   33  A    between atoms: _76  and  _79
REMARK   34  A    between atoms: _79  and  _80
REMARK   35  A    between atoms: _83  and  _85
REMARK   36  A    between atoms: _85  and  _86
REMARK   37  A    between atoms: _85  and  _88
REMARK   38  A    between atoms: _88  and  _89
REMARK   39  A    between atoms: _92  and  _94
REMARK   40  A    between atoms: _94  and  _95
REMARK   41  A    between atoms: _94  and  _97
REMARK   42  A    between atoms: _100  and  _102
REMARK   43  A    between atoms: _102  and  _103
REMARK   44  A    between atoms: _102  and  _105
REMARK   45  A    between atoms: _105  and  _106
REMARK   46  A    between atoms: _106  and  _107
REMARK   47  A    between atoms: _107  and  _108
REMARK   48  A    between atoms: _108  and  _109
REMARK   49  A    between atoms: _113  and  _115
REMARK   50  A    between atoms: _115  and  _116
REMARK   51  A    between atoms: _115  and  _118
REMARK   52  A    between atoms: _118  and  _119
REMARK   53  A    between atoms: _122  and  _124
REMARK   54  A    between atoms: _124  and  _125
REMARK   55  A    between atoms: _127  and  _129
REMARK   56  A    between atoms: _129  and  _130
REMARK   57  A    between atoms: _132  and  _134
REMARK   58  A    between atoms: _134  and  _135
REMARK   59  A    between atoms: _134  and  _137
REMARK   60  A    between atoms: _137  and  _138
REMARK   61  A    between atoms: _141  and  _143
REMARK   62  A    between atoms: _143  and  _144
REMARK   63  A    between atoms: _146  and  _148
REMARK   64  A    between atoms: _148  and  _149
REMARK   65  A    between atoms: _151  and  _153
REMARK   66  A    between atoms: _153  and  _154
REMARK   67  A    between atoms: _153  and  _156
REMARK   68  A    between atoms: _156  and  _157
REMARK   69  A    between atoms: _163  and  _165
REMARK   70  A    between atoms: _165  and  _166
REMARK   71  A    between atoms: _165  and  _168
REMARK   72  A    between atoms: _168  and  _169
REMARK   73  A    between atoms: _172  and  _174
REMARK   74  A    between atoms: _174  and  _175
REMARK   75  A    between atoms: _174  and  _177
REMARK   76  A    between atoms: _177  and  _178
REMARK   77  A    between atoms: _181  and  _183
REMARK   78  A    between atoms: _183  and  _184
REMARK   79  A    between atoms: _183  and  _186
REMARK   80  A    between atoms: _186  and  _187
REMARK   81  A    between atoms: _191  and  _192
REMARK   82  A    between atoms: _197  and  _199
REMARK   83  A    between atoms: _199  and  _200
REMARK   84  A    between atoms: _199  and  _202
REMARK   85  A    between atoms: _205  and  _207
REMARK   86  A    between atoms: _207  and  _208
REMARK   87  A    between atoms: _207  and  _210
REMARK   88  A    between atoms: _210  and  _211
REMARK   89  A    between atoms: _216  and  _218
REMARK   90  A    between atoms: _218  and  _219
REMARK   91  A    between atoms: _218  and  _221
REMARK   92  A    between atoms: _221  and  _222
REMARK   93  A    between atoms: _225  and  _227
REMARK   94  A    between atoms: _227  and  _228
REMARK   95  A    between atoms: _227  and  _230
REMARK   96  A    between atoms: _230  and  _231
REMARK   97  A    between atoms: _234  and  _236
REMARK   98  A    between atoms: _236  and  _237
REMARK   99  A    between atoms: _239  and  _241
REMARK  100  A    between atoms: _241  and  _242
REMARK  101  A    between atoms: _241  and  _244
REMARK  102  A    between atoms: _244  and  _245
REMARK  103  A    between atoms: _245  and  _246
REMARK  104  A    between atoms: _246  and  _247
REMARK  105  A    between atoms: _256  and  _258
REMARK  106  A    between atoms: _258  and  _259
REMARK  107  A    between atoms: _258  and  _261
REMARK  108  A    between atoms: _261  and  _262
REMARK  109  A    between atoms: _267  and  _269
REMARK  110  A    between atoms: _269  and  _270
REMARK  111  A    between atoms: _269  and  _272
REMARK  112  A    between atoms: _272  and  _273
REMARK  113  A    between atoms: _273  and  _274
REMARK  114  A    between atoms: _274  and  _275
REMARK  115  A    between atoms: _284  and  _286
REMARK  116  A    between atoms: _286  and  _287
REMARK  117  A    between atoms: _286  and  _289
REMARK  118  A    between atoms: _289  and  _290
REMARK  119  A    between atoms: _293  and  _295
REMARK  120  A    between atoms: _295  and  _296
REMARK  121  A    between atoms: _295  and  _298
REMARK  122  A    between atoms: _298  and  _299
REMARK  123  A    between atoms: _302  and  _304
REMARK  124  A    between atoms: _304  and  _305
REMARK  125  A    between atoms: _304  and  _307
REMARK  126  A    between atoms: _307  and  _308
REMARK  127  A    between atoms: _311  and  _313
REMARK  128  A    between atoms: _313  and  _314
REMARK  129  A    between atoms: _313  and  _316
REMARK  130  A    between atoms: _316  and  _317
REMARK  131  A    between atoms: _320  and  _322
REMARK  132  A    between atoms: _322  and  _323
REMARK  133  A    between atoms: _322  and  _325
REMARK  134  A    between atoms: _325  and  _326
REMARK  135  A    between atoms: _329  and  _331
REMARK  136  A    between atoms: _331  and  _332
REMARK  137  A    between atoms: _334  and  _336
REMARK  138  A    between atoms: _336  and  _337
REMARK  139  A    between atoms: _340  and  _342
REMARK  140  A    between atoms: _342  and  _343
REMARK  141  A    between atoms: _342  and  _345
REMARK  142  A    between atoms: _345  and  _346
REMARK  143  A    between atoms: _349  and  _351
REMARK  144  A    between atoms: _351  and  _352
REMARK  145  A    between atoms: _351  and  _354
REMARK  146  A    between atoms: _354  and  _355
REMARK  147  A    between atoms: _358  and  _360
REMARK  148  A    between atoms: _360  and  _361
REMARK  149  A    between atoms: _360  and  _363
REMARK  150  A    between atoms: _363  and  _364
REMARK  151  A    between atoms: _367  and  _369
REMARK  152  A    between atoms: _369  and  _370
REMARK  153  A    between atoms: _369  and  _372
REMARK  154  A    between atoms: _375  and  _377
REMARK  155  A    between atoms: _377  and  _378
REMARK  156  A    between atoms: _377  and  _380
REMARK  157  A    between atoms: _380  and  _381
REMARK  158  A    between atoms: _381  and  _382
REMARK  159  A    between atoms: _382  and  _383
REMARK  160  A    between atoms: _383  and  _384
REMARK  161  A    between atoms: _388  and  _390
REMARK  162  A    between atoms: _390  and  _391
REMARK  163  A    between atoms: _390  and  _393
REMARK  164  A    between atoms: _393  and  _394
REMARK  165  A    between atoms: _394  and  _395
REMARK  166  A    between atoms: _397  and  _399
REMARK  167  A    between atoms: _399  and  _400
REMARK  168  A    between atoms: _399  and  _402
REMARK  169  A    between atoms: _402  and  _403
REMARK  170  A    between atoms: _406  and  _408
REMARK  171  A    between atoms: _408  and  _409
REMARK  172  A    between atoms: _411  and  _413
REMARK  173  A    between atoms: _413  and  _414
REMARK  174  A    between atoms: _416  and  _418
REMARK  175  A    between atoms: _418  and  _419
REMARK  176  A    between atoms: _418  and  _421
REMARK  177  A    between atoms: _421  and  _422
REMARK  178  A    between atoms: _425  and  _427
REMARK  179  A    between atoms: _427  and  _428
REMARK  180  A    between atoms: _430  and  _432
REMARK  181  A    between atoms: _432  and  _433
REMARK  182  A    between atoms: _435  and  _437
REMARK  183  A    between atoms: _437  and  _438
REMARK  184  A    between atoms: _437  and  _440
REMARK  185  A    between atoms: _440  and  _441
REMARK  186  A    between atoms: _447  and  _449
REMARK  187  A    between atoms: _449  and  _450
REMARK  188  A    between atoms: _449  and  _452
REMARK  189  A    between atoms: _452  and  _453
REMARK  190  A    between atoms: _456  and  _458
REMARK  191  A    between atoms: _458  and  _459
REMARK  192  A    between atoms: _458  and  _461
REMARK  193  A    between atoms: _464  and  _466
REMARK  194  A    between atoms: _466  and  _467
REMARK  195  A    between atoms: _466  and  _469
REMARK  196  A    between atoms: _469  and  _470
REMARK  197  A    between atoms: _473  and  _475
REMARK  198  A    between atoms: _475  and  _476
REMARK  199  A    between atoms: _475  and  _478
REMARK  200  A    between atoms: _478  and  _479
REMARK  201  A    between atoms: _483  and  _484
REMARK  202  A    between atoms: _489  and  _491
REMARK  203  A    between atoms: _491  and  _492
REMARK  204  A    between atoms: _491  and  _494
REMARK  205  A    between atoms: _497  and  _499
REMARK  206  A    between atoms: _499  and  _500
REMARK  207  A    between atoms: _499  and  _502
REMARK  208  A    between atoms: _502  and  _503
REMARK  209  A    between atoms: _508  and  _510
REMARK  210  A    between atoms: _510  and  _511
REMARK  211  A    between atoms: _510  and  _513
REMARK  212  A    between atoms: _513  and  _514
REMARK  213  A    between atoms: _517  and  _519
REMARK  214  A    between atoms: _519  and  _520
REMARK  215  A    between atoms: _519  and  _522
REMARK  216  A    between atoms: _522  and  _523
REMARK  217  A    between atoms: _526  and  _528
REMARK  218  A    between atoms: _528  and  _529
REMARK  219  A    between atoms: _531  and  _533
REMARK  220  A    between atoms: _533  and  _534
REMARK  221  A    between atoms: _533  and  _536
REMARK  222  A    between atoms: _536  and  _537
REMARK  223  A    between atoms: _537  and  _538
REMARK  224  A    between atoms: _538  and  _539
REMARK                            x       y       z     vdW  Elec       q    Type
REMARK                         _______ _______ _______ _____ _____    ______ ____
ROOT
ATOM      1  O   HOH     1       9.009  -9.856  20.087  0.00  0.00    +0.000 OA
ENDROOT
TORSDOF 0
REMARK  Name = ../refined-set-2016/1hih/1hih_pocket.pdb
REMARK  224 active torsions:
REMARK  status: ('A' for Active; 'I' for Inactive)
REMARK    1  A    between atoms: _1  and  _3
REMARK    2  A    between atoms: _3  and  _4
REMARK    3  A    between atoms: _3  and  _6
REMARK    4  A    between atoms: _6  and  _7
REMARK    5  A    between atoms: _7  and  _8
REMARK    6  A    between atoms: _8  and  _9
REMARK    7  A    between atoms: _18  and  _20
REMARK    8  A    between atoms: _20  and  _21
REMARK    9  A    between atoms: _20  and  _23
REMARK   10  A    between atoms: _23  and  _24
REMARK   11  A    between atoms: _27  and  _29
REMARK   12  A    between atoms: _29  and  _30
REMARK   13  A    between atoms: _29  and  _32
REMARK   14  A    between atoms: _32  and  _33
REMARK   15  A    between atoms: _36  and  _38
REMARK   16  A    between atoms: _38  and  _39
REMARK   17  A    between atoms: _38  and  _41
REMARK   18  A    between atoms: _41  and  _42
REMARK   19  A    between atoms: _45  and  _47
REMARK   20  A    between atoms: _47  and  _48
REMARK   21  A    between atoms: _47  and  _50
REMARK   22  A    between atoms: _50  and  _51
REMARK   23  A    between atoms: _54  and  _56
REMARK   24  A    between atoms: _56  and  _57
REMARK   25  A    between atoms: _59  and  _61
REMARK   26  A    between atoms: _61  and  _62
REMARK   27  A    between atoms: _65  and  _67
REMARK   28  A    between atoms: _67  and  _68
REMARK   29  A    between atoms: _67  and  _70
REMARK   30  A    between atoms: _70  and  _71
REMARK   31  A    between atoms: _74  and  _76
REMARK   32  A    between atoms: _76  and  _77
REMARK   33  A    between atoms: _76  and  _79
REMARK   34  A    between atoms: _79  and  _80
REMARK   35  A    between atoms: _83  and  _85
REMARK   36  A    between atoms: _85  and  _86
REMARK   37  A    between atoms: _85  and  _88
REMARK   38  A    between atoms: _88  and  _89
REMARK   39  A    between atoms: _92  and  _94
REMARK   40  A    between atoms: _94  and  _95
REMARK   41  A    between atoms: _94  and  _97
REMARK   42  A    between atoms: _100  and  _102
REMARK   43  A    between atoms: _102  and  _103
REMARK   44  A    between atoms: _102  and  _105
REMARK   45  A    between atoms: _105  and  _106
REMARK   46  A    between atoms: _106  and  _107
REMARK   47  A    between atoms: _107  and  _108
REMARK   48  A    between atoms: _108  and  _109
REMARK   49  A    between atoms: _113  and  _115
REMARK   50  A    between atoms: _115  and  _116
REMARK   51  A    between atoms: _115  and  _118
REMARK   52  A    between atoms: _118  and  _119
REMARK   53  A    between atoms: _122  and  _124
REMARK   54  A    between atoms: _124  and  _125
REMARK   55  A    between atoms: _127  and  _129
REMARK   56  A    between atoms: _129  and  _130
REMARK   57  A    between atoms: _132  and  _134
REMARK   58  A    between atoms: _134  and  _135
REMARK   59  A    between atoms: _134  and  _137
REMARK   60  A    between atoms: _137  and  _138
REMARK   61  A    between atoms: _141  and  _143
REMARK   62  A    between atoms: _143  and  _144
REMARK   63  A    between atoms: _146  and  _148
REMARK   64  A    between atoms: _148  and  _149
REMARK   65  A    between atoms: _151  and  _153
REMARK   66  A    between atoms: _153  and  _154
REMARK   67  A    between atoms: _153  and  _156
REMARK   68  A    between atoms: _156  and  _157
REMARK   69  A    between atoms: _163  and  _165
REMARK   70  A    between atoms: _165  and  _166
REMARK   71  A    between atoms: _165  and  _168
REMARK   72  A    between atoms: _168  and  _169
REMARK   73  A    between atoms: _172  and  _174
REMARK   74  A    between atoms: _174  and  _175
REMARK   75  A    between atoms: _174  and  _177
REMARK   76  A    between atoms: _177  and  _178
REMARK   77  A    between atoms: _181  and  _183
REMARK   78  A    between atoms: _183  and  _184
REMARK   79  A    between atoms: _183  and  _186
REMARK   80  A    between atoms: _186  and  _187
REMARK   81  A    between atoms: _191  and  _192
REMARK   82  A    between atoms: _197  and  _199
REMARK   83  A    between atoms: _199  and  _200
REMARK   84  A    between atoms: _199  and  _202
REMARK   85  A    between atoms: _205  and  _207
REMARK   86  A    between atoms: _207  and  _208
REMARK   87  A    between atoms: _207  and  _210
REMARK   88  A    between atoms: _210  and  _211
REMARK   89  A    between atoms: _216  and  _218
REMARK   90  A    between atoms: _218  and  _219
REMARK   91  A    between atoms: _218  and  _221
REMARK   92  A    between atoms: _221  and  _222
REMARK   93  A    between atoms: _225  and  _227
REMARK   94  A    between atoms: _227  and  _228
REMARK   95  A    between atoms: _227  and  _230
REMARK   96  A    between atoms: _230  and  _231
REMARK   97  A    between atoms: _234  and  _236
REMARK   98  A    between atoms: _236  and  _237
REMARK   99  A    between atoms: _239  and  _241
REMARK  100  A    between atoms: _241  and  _242
REMARK  101  A    between atoms: _241  and  _244
REMARK  102  A    between atoms: _244  and  _245
REMARK  103  A    between atoms: _245  and  _246
REMARK  104  A    between atoms: _246  and  _247
REMARK  105  A    between atoms: _256  and  _258
REMARK  106  A    between atoms: _258  and  _259
REMARK  107  A    between atoms: _258  and  _261
REMARK  108  A    between atoms: _261  and  _262
REMARK  109  A    between atoms: _267  and  _269
REMARK  110  A    between atoms: _269  and  _270
REMARK  111  A    between atoms: _269  and  _272
REMARK  112  A    between atoms: _272  and  _273
REMARK  113  A    between atoms: _273  and  _274
REMARK  114  A    between atoms: _274  and  _275
REMARK  115  A    between atoms: _284  and  _286
REMARK  116  A    between atoms: _286  and  _287
REMARK  117  A    between atoms: _286  and  _289
REMARK  118  A    between atoms: _289  and  _290
REMARK  119  A    between atoms: _293  and  _295
REMARK  120  A    between atoms: _295  and  _296
REMARK  121  A    between atoms: _295  and  _298
REMARK  122  A    between atoms: _298  and  _299
REMARK  123  A    between atoms: _302  and  _304
REMARK  124  A    between atoms: _304  and  _305
REMARK  125  A    between atoms: _304  and  _307
REMARK  126  A    between atoms: _307  and  _308
REMARK  127  A    between atoms: _311  and  _313
REMARK  128  A    between atoms: _313  and  _314
REMARK  129  A    between atoms: _313  and  _316
REMARK  130  A    between atoms: _316  and  _317
REMARK  131  A    between atoms: _320  and  _322
REMARK  132  A    between atoms: _322  and  _323
REMARK  133  A    between atoms: _322  and  _325
REMARK  134  A    between atoms: _325  and  _326
REMARK  135  A    between atoms: _329  and  _331
REMARK  136  A    between atoms: _331  and  _332
REMARK  137  A    between atoms: _334  and  _336
REMARK  138  A    between atoms: _336  and  _337
REMARK  139  A    between atoms: _340  and  _342
REMARK  140  A    between atoms: _342  and  _343
REMARK  141  A    between atoms: _342  and  _345
REMARK  142  A    between atoms: _345  and  _346
REMARK  143  A    between atoms: _349  and  _351
REMARK  144  A    between atoms: _351  and  _352
REMARK  145  A    between atoms: _351  and  _354
REMARK  146  A    between atoms: _354  and  _355
REMARK  147  A    between atoms: _358  and  _360
REMARK  148  A    between atoms: _360  and  _361
REMARK  149  A    between atoms: _360  and  _363
REMARK  150  A    between atoms: _363  and  _364
REMARK  151  A    between atoms: _367  and  _369
REMARK  152  A    between atoms: _369  and  _370
REMARK  153  A    between atoms: _369  and  _372
REMARK  154  A    between atoms: _375  and  _377
REMARK  155  A    between atoms: _377  and  _378
REMARK  156  A    between atoms: _377  and  _380
REMARK  157  A    between atoms: _380  and  _381
REMARK  158  A    between atoms: _381  and  _382
REMARK  159  A    between atoms: _382  and  _383
REMARK  160  A    between atoms: _383  and  _384
REMARK  161  A    between atoms: _388  and  _390
REMARK  162  A    between atoms: _390  and  _391
REMARK  163  A    between atoms: _390  and  _393
REMARK  164  A    between atoms: _393  and  _394
REMARK  165  A    between atoms: _394  and  _395
REMARK  166  A    between atoms: _397  and  _399
REMARK  167  A    between atoms: _399  and  _400
REMARK  168  A    between atoms: _399  and  _402
REMARK  169  A    between atoms: _402  and  _403
REMARK  170  A    between atoms: _406  and  _408
REMARK  171  A    between atoms: _408  and  _409
REMARK  172  A    between atoms: _411  and  _413
REMARK  173  A    between atoms: _413  and  _414
REMARK  174  A    between atoms: _416  and  _418
REMARK  175  A    between atoms: _418  and  _419
REMARK  176  A    between atoms: _418  and  _421
REMARK  177  A    between atoms: _421  and  _422
REMARK  178  A    between atoms: _425  and  _427
REMARK  179  A    between atoms: _427  and  _428
REMARK  180  A    between atoms: _430  and  _432
REMARK  181  A    between atoms: _432  and  _433
REMARK  182  A    between atoms: _435  and  _437
REMARK  183  A    between atoms: _437  and  _438
REMARK  184  A    between atoms: _437  and  _440
REMARK  185  A    between atoms: _440  and  _441
REMARK  186  A    between atoms: _447  and  _449
REMARK  187  A    between atoms: _449  and  _450
REMARK  188  A    between atoms: _449  and  _452
REMARK  189  A    between atoms: _452  and  _453
REMARK  190  A    between atoms: _456  and  _458
REMARK  191  A    between atoms: _458  and  _459
REMARK  192  A    between atoms: _458  and  _461
REMARK  193  A    between atoms: _464  and  _466
REMARK  194  A    between atoms: _466  and  _467
REMARK  195  A    between atoms: _466  and  _469
REMARK  196  A    between atoms: _469  and  _470
REMARK  197  A    between atoms: _473  and  _475
REMARK  198  A    between atoms: _475  and  _476
REMARK  199  A    between atoms: _475  and  _478
REMARK  200  A    between atoms: _478  and  _479
REMARK  201  A    between atoms: _483  and  _484
REMARK  202  A    between atoms: _489  and  _491
REMARK  203  A    between atoms: _491  and  _492
REMARK  204  A    between atoms: _491  and  _494
REMARK  205  A    between atoms: _497  and  _499
REMARK  206  A    between atoms: _499  and  _500
REMARK  207  A    between atoms: _499  and  _502
REMARK  208  A    between atoms: _502  and  _503
REMARK  209  A    between atoms: _508  and  _510
REMARK  210  A    between atoms: _510  and  _511
REMARK  211  A    between atoms: _510  and  _513
REMARK  212  A    between atoms: _513  and  _514
REMARK  213  A    between atoms: _517  and  _519
REMARK  214  A    between atoms: _519  and  _520
REMARK  215  A    between atoms: _519  and  _522
REMARK  216  A    between atoms: _522  and  _523
REMARK  217  A    between atoms: _526  and  _528
REMARK  218  A    between atoms: _528  and  _529
REMARK  219  A    between atoms: _531  and  _533
REMARK  220  A    between atoms: _533  and  _534
REMARK  221  A    between atoms: _533  and  _536
REMARK  222  A    between atoms: _536  and  _537
REMARK  223  A    between atoms: _537  and  _538
REMARK  224  A    between atoms: _538  and  _539
REMARK                            x       y       z     vdW  Elec       q    Type
REMARK                         _______ _______ _______ _____ _____    ______ ____
ROOT
ATOM      1  O   HOH     1      -0.762  -9.023   8.640  0.00  0.00    +0.000 OA
ENDROOT
TORSDOF 0
REMARK  Name = ../refined-set-2016/1hih/1hih_pocket.pdb
REMARK  224 active torsions:
REMARK  status: ('A' for Active; 'I' for Inactive)
REMARK    1  A    between atoms: _1  and  _3
REMARK    2  A    between atoms: _3  and  _4
REMARK    3  A    between atoms: _3  and  _6
REMARK    4  A    between atoms: _6  and  _7
REMARK    5  A    between atoms: _7  and  _8
REMARK    6  A    between atoms: _8  and  _9
REMARK    7  A    between atoms: _18  and  _20
REMARK    8  A    between atoms: _20  and  _21
REMARK    9  A    between atoms: _20  and  _23
REMARK   10  A    between atoms: _23  and  _24
REMARK   11  A    between atoms: _27  and  _29
REMARK   12  A    between atoms: _29  and  _30
REMARK   13  A    between atoms: _29  and  _32
REMARK   14  A    between atoms: _32  and  _33
REMARK   15  A    between atoms: _36  and  _38
REMARK   16  A    between atoms: _38  and  _39
REMARK   17  A    between atoms: _38  and  _41
REMARK   18  A    between atoms: _41  and  _42
REMARK   19  A    between atoms: _45  and  _47
REMARK   20  A    between atoms: _47  and  _48
REMARK   21  A    between atoms: _47  and  _50
REMARK   22  A    between atoms: _50  and  _51
REMARK   23  A    between atoms: _54  and  _56
REMARK   24  A    between atoms: _56  and  _57
REMARK   25  A    between atoms: _59  and  _61
REMARK   26  A    between atoms: _61  and  _62
REMARK   27  A    between atoms: _65  and  _67
REMARK   28  A    between atoms: _67  and  _68
REMARK   29  A    between atoms: _67  and  _70
REMARK   30  A    between atoms: _70  and  _71
REMARK   31  A    between atoms: _74  and  _76
REMARK   32  A    between atoms: _76  and  _77
REMARK   33  A    between atoms: _76  and  _79
REMARK   34  A    between atoms: _79  and  _80
REMARK   35  A    between atoms: _83  and  _85
REMARK   36  A    between atoms: _85  and  _86
REMARK   37  A    between atoms: _85  and  _88
REMARK   38  A    between atoms: _88  and  _89
REMARK   39  A    between atoms: _92  and  _94
REMARK   40  A    between atoms: _94  and  _95
REMARK   41  A    between atoms: _94  and  _97
REMARK   42  A    between atoms: _100  and  _102
REMARK   43  A    between atoms: _102  and  _103
REMARK   44  A    between atoms: _102  and  _105
REMARK   45  A    between atoms: _105  and  _106
REMARK   46  A    between atoms: _106  and  _107
REMARK   47  A    between atoms: _107  and  _108
REMARK   48  A    between atoms: _108  and  _109
REMARK   49  A    between atoms: _113  and  _115
REMARK   50  A    between atoms: _115  and  _116
REMARK   51  A    between atoms: _115  and  _118
REMARK   52  A    between atoms: _118  and  _119
REMARK   53  A    between atoms: _122  and  _124
REMARK   54  A    between atoms: _124  and  _125
REMARK   55  A    between atoms: _127  and  _129
REMARK   56  A    between atoms: _129  and  _130
REMARK   57  A    between atoms: _132  and  _134
REMARK   58  A    between atoms: _134  and  _135
REMARK   59  A    between atoms: _134  and  _137
REMARK   60  A    between atoms: _137  and  _138
REMARK   61  A    between atoms: _141  and  _143
REMARK   62  A    between atoms: _143  and  _144
REMARK   63  A    between atoms: _146  and  _148
REMARK   64  A    between atoms: _148  and  _149
REMARK   65  A    between atoms: _151  and  _153
REMARK   66  A    between atoms: _153  and  _154
REMARK   67  A    between atoms: _153  and  _156
REMARK   68  A    between atoms: _156  and  _157
REMARK   69  A    between atoms: _163  and  _165
REMARK   70  A    between atoms: _165  and  _166
REMARK   71  A    between atoms: _165  and  _168
REMARK   72  A    between atoms: _168  and  _169
REMARK   73  A    between atoms: _172  and  _174
REMARK   74  A    between atoms: _174  and  _175
REMARK   75  A    between atoms: _174  and  _177
REMARK   76  A    between atoms: _177  and  _178
REMARK   77  A    between atoms: _181  and  _183
REMARK   78  A    between atoms: _183  and  _184
REMARK   79  A    between atoms: _183  and  _186
REMARK   80  A    between atoms: _186  and  _187
REMARK   81  A    between atoms: _191  and  _192
REMARK   82  A    between atoms: _197  and  _199
REMARK   83  A    between atoms: _199  and  _200
REMARK   84  A    between atoms: _199  and  _202
REMARK   85  A    between atoms: _205  and  _207
REMARK   86  A    between atoms: _207  and  _208
REMARK   87  A    between atoms: _207  and  _210
REMARK   88  A    between atoms: _210  and  _211
REMARK   89  A    between atoms: _216  and  _218
REMARK   90  A    between atoms: _218  and  _219
REMARK   91  A    between atoms: _218  and  _221
REMARK   92  A    between atoms: _221  and  _222
REMARK   93  A    between atoms: _225  and  _227
REMARK   94  A    between atoms: _227  and  _228
REMARK   95  A    between atoms: _227  and  _230
REMARK   96  A    between atoms: _230  and  _231
REMARK   97  A    between atoms: _234  and  _236
REMARK   98  A    between atoms: _236  and  _237
REMARK   99  A    between atoms: _239  and  _241
REMARK  100  A    between atoms: _241  and  _242
REMARK  101  A    between atoms: _241  and  _244
REMARK  102  A    between atoms: _244  and  _245
REMARK  103  A    between atoms: _245  and  _246
REMARK  104  A    between atoms: _246  and  _247
REMARK  105  A    between atoms: _256  and  _258
REMARK  106  A    between atoms: _258  and  _259
REMARK  107  A    between atoms: _258  and  _261
REMARK  108  A    between atoms: _261  and  _262
REMARK  109  A    between atoms: _267  and  _269
REMARK  110  A    between atoms: _269  and  _270
REMARK  111  A    between atoms: _269  and  _272
REMARK  112  A    between atoms: _272  and  _273
REMARK  113  A    between atoms: _273  and  _274
REMARK  114  A    between atoms: _274  and  _275
REMARK  115  A    between atoms: _284  and  _286
REMARK  116  A    between atoms: _286  and  _287
REMARK  117  A    between atoms: _286  and  _289
REMARK  118  A    between atoms: _289  and  _290
REMARK  119  A    between atoms: _293  and  _295
REMARK  120  A    between atoms: _295  and  _296
REMARK  121  A    between atoms: _295  and  _298
REMARK  122  A    between atoms: _298  and  _299
REMARK  123  A    between atoms: _302  and  _304
REMARK  124  A    between atoms: _304  and  _305
REMARK  125  A    between atoms: _304  and  _307
REMARK  126  A    between atoms: _307  and  _308
REMARK  127  A    between atoms: _311  and  _313
REMARK  128  A    between atoms: _313  and  _314
REMARK  129  A    between atoms: _313  and  _316
REMARK  130  A    between atoms: _316  and  _317
REMARK  131  A    between atoms: _320  and  _322
REMARK  132  A    between atoms: _322  and  _323
REMARK  133  A    between atoms: _322  and  _325
REMARK  134  A    between atoms: _325  and  _326
REMARK  135  A    between atoms: _329  and  _331
REMARK  136  A    between atoms: _331  and  _332
REMARK  137  A    between atoms: _334  and  _336
REMARK  138  A    between atoms: _336  and  _337
REMARK  139  A    between atoms: _340  and  _342
REMARK  140  A    between atoms: _342  and  _343
REMARK  141  A    between atoms: _342  and  _345
REMARK  142  A    between atoms: _345  and  _346
REMARK  143  A    between atoms: _349  and  _351
REMARK  144  A    between atoms: _351  and  _352
REMARK  145  A    between atoms: _351  and  _354
REMARK  146  A    between atoms: _354  and  _355
REMARK  147  A    between atoms: _358  and  _360
REMARK  148  A    between atoms: _360  and  _361
REMARK  149  A    between atoms: _360  and  _363
REMARK  150  A    between atoms: _363  and  _364
REMARK  151  A    between atoms: _367  and  _369
REMARK  152  A    between atoms: _369  and  _370
REMARK  153  A    between atoms: _369  and  _372
REMARK  154  A    between atoms: _375  and  _377
REMARK  155  A    between atoms: _377  and  _378
REMARK  156  A    between atoms: _377  and  _380
REMARK  157  A    between atoms: _380  and  _381
REMARK  158  A    between atoms: _381  and  _382
REMARK  159  A    between atoms: _382  and  _383
REMARK  160  A    between atoms: _383  and  _384
REMARK  161  A    between atoms: _388  and  _390
REMARK  162  A    between atoms: _390  and  _391
REMARK  163  A    between atoms: _390  and  _393
REMARK  164  A    between atoms: _393  and  _394
REMARK  165  A    between atoms: _394  and  _395
REMARK  166  A    between atoms: _397  and  _399
REMARK  167  A    between atoms: _399  and  _400
REMARK  168  A    between atoms: _399  and  _402
REMARK  169  A    between atoms: _402  and  _403
REMARK  170  A    between atoms: _406  and  _408
REMARK  171  A    between atoms: _408  and  _409
REMARK  172  A    between atoms: _411  and  _413
REMARK  173  A    between atoms: _413  and  _414
REMARK  174  A    between atoms: _416  and  _418
REMARK  175  A    between atoms: _418  and  _419
REMARK  176  A    between atoms: _418  and  _421
REMARK  177  A    between atoms: _421  and  _422
REMARK  178  A    between atoms: _425  and  _427
REMARK  179  A    between atoms: _427  and  _428
REMARK  180  A    between atoms: _430  and  _432
REMARK  181  A    between atoms: _432  and  _433
REMARK  182  A    between atoms: _435  and  _437
REMARK  183  A    between atoms: _437  and  _438
REMARK  184  A    between atoms: _437  and  _440
REMARK  185  A    between atoms: _440  and  _441
REMARK  186  A    between atoms: _447  and  _449
REMARK  187  A    between atoms: _449  and  _450
REMARK  188  A    between atoms: _449  and  _452
REMARK  189  A    between atoms: _452  and  _453
REMARK  190  A    between atoms: _456  and  _458
REMARK  191  A    between atoms: _458  and  _459
REMARK  192  A    between atoms: _458  and  _461
REMARK  193  A    between atoms: _464  and  _466
REMARK  194  A    between atoms: _466  and  _467
REMARK  195  A    between atoms: _466  and  _469
REMARK  196  A    between atoms: _469  and  _470
REMARK  197  A    between atoms: _473  and  _475
REMARK  198  A    between atoms: _475  and  _476
REMARK  199  A    between atoms: _475  and  _478
REMARK  200  A    between atoms: _478  and  _479
REMARK  201  A    between atoms: _483  and  _484
REMARK  202  A    between atoms: _489  and  _491
REMARK  203  A    between atoms: _491  and  _492
REMARK  204  A    between atoms: _491  and  _494
REMARK  205  A    between atoms: _497  and  _499
REMARK  206  A    between atoms: _499  and  _500
REMARK  207  A    between atoms: _499  and  _502
REMARK  208  A    between atoms: _502  and  _503
REMARK  209  A    between atoms: _508  and  _510
REMARK  210  A    between atoms: _510  and  _511
REMARK  211  A    between atoms: _510  and  _513
REMARK  212  A    between atoms: _513  and  _514
REMARK  213  A    between atoms: _517  and  _519
REMARK  214  A    between atoms: _519  and  _520
REMARK  215  A    between atoms: _519  and  _522
REMARK  216  A    between atoms: _522  and  _523
REMARK  217  A    between atoms: _526  and  _528
REMARK  218  A    between atoms: _528  and  _529
REMARK  219  A    between atoms: _531  and  _533
REMARK  220  A    between atoms: _533  and  _534
REMARK  221  A    between atoms: _533  and  _536
REMARK  222  A    between atoms: _536  and  _537
REMARK  223  A    between atoms: _537  and  _538
REMARK  224  A    between atoms: _538  and  _539
REMARK                            x       y       z     vdW  Elec       q    Type
REMARK                         _______ _______ _______ _____ _____    ______ ____
ROOT
ATOM      1  O   HOH     1       6.383   5.076   7.123  0.00  0.00    +0.000 OA
ENDROOT
TORSDOF 0
REMARK  Name = ../refined-set-2016/1hih/1hih_pocket.pdb
REMARK  224 active torsions:
REMARK  status: ('A' for Active; 'I' for Inactive)
REMARK    1  A    between atoms: _1  and  _3
REMARK    2  A    between atoms: _3  and  _4
REMARK    3  A    between atoms: _3  and  _6
REMARK    4  A    between atoms: _6  and  _7
REMARK    5  A    between atoms: _7  and  _8
REMARK    6  A    between atoms: _8  and  _9
REMARK    7  A    between atoms: _18  and  _20
REMARK    8  A    between atoms: _20  and  _21
REMARK    9  A    between atoms: _20  and  _23
REMARK   10  A    between atoms: _23  and  _24
REMARK   11  A    between atoms: _27  and  _29
REMARK   12  A    between atoms: _29  and  _30
REMARK   13  A    between atoms: _29  and  _32
REMARK   14  A    between atoms: _32  and  _33
REMARK   15  A    between atoms: _36  and  _38
REMARK   16  A    between atoms: _38  and  _39
REMARK   17  A    between atoms: _38  and  _41
REMARK   18  A    between atoms: _41  and  _42
REMARK   19  A    between atoms: _45  and  _47
REMARK   20  A    between atoms: _47  and  _48
REMARK   21  A    between atoms: _47  and  _50
REMARK   22  A    between atoms: _50  and  _51
REMARK   23  A    between atoms: _54  and  _56
REMARK   24  A    between atoms: _56  and  _57
REMARK   25  A    between atoms: _59  and  _61
REMARK   26  A    between atoms: _61  and  _62
REMARK   27  A    between atoms: _65  and  _67
REMARK   28  A    between atoms: _67  and  _68
REMARK   29  A    between atoms: _67  and  _70
REMARK   30  A    between atoms: _70  and  _71
REMARK   31  A    between atoms: _74  and  _76
REMARK   32  A    between atoms: _76  and  _77
REMARK   33  A    between atoms: _76  and  _79
REMARK   34  A    between atoms: _79  and  _80
REMARK   35  A    between atoms: _83  and  _85
REMARK   36  A    between atoms: _85  and  _86
REMARK   37  A    between atoms: _85  and  _88
REMARK   38  A    between atoms: _88  and  _89
REMARK   39  A    between atoms: _92  and  _94
REMARK   40  A    between atoms: _94  and  _95
REMARK   41  A    between atoms: _94  and  _97
REMARK   42  A    between atoms: _100  and  _102
REMARK   43  A    between atoms: _102  and  _103
REMARK   44  A    between atoms: _102  and  _105
REMARK   45  A    between atoms: _105  and  _106
REMARK   46  A    between atoms: _106  and  _107
REMARK   47  A    between atoms: _107  and  _108
REMARK   48  A    between atoms: _108  and  _109
REMARK   49  A    between atoms: _113  and  _115
REMARK   50  A    between atoms: _115  and  _116
REMARK   51  A    between atoms: _115  and  _118
REMARK   52  A    between atoms: _118  and  _119
REMARK   53  A    between atoms: _122  and  _124
REMARK   54  A    between atoms: _124  and  _125
REMARK   55  A    between atoms: _127  and  _129
REMARK   56  A    between atoms: _129  and  _130
REMARK   57  A    between atoms: _132  and  _134
REMARK   58  A    between atoms: _134  and  _135
REMARK   59  A    between atoms: _134  and  _137
REMARK   60  A    between atoms: _137  and  _138
REMARK   61  A    between atoms: _141  and  _143
REMARK   62  A    between atoms: _143  and  _144
REMARK   63  A    between atoms: _146  and  _148
REMARK   64  A    between atoms: _148  and  _149
REMARK   65  A    between atoms: _151  and  _153
REMARK   66  A    between atoms: _153  and  _154
REMARK   67  A    between atoms: _153  and  _156
REMARK   68  A    between atoms: _156  and  _157
REMARK   69  A    between atoms: _163  and  _165
REMARK   70  A    between atoms: _165  and  _166
REMARK   71  A    between atoms: _165  and  _168
REMARK   72  A    between atoms: _168  and  _169
REMARK   73  A    between atoms: _172  and  _174
REMARK   74  A    between atoms: _174  and  _175
REMARK   75  A    between atoms: _174  and  _177
REMARK   76  A    between atoms: _177  and  _178
REMARK   77  A    between atoms: _181  and  _183
REMARK   78  A    between atoms: _183  and  _184
REMARK   79  A    between atoms: _183  and  _186
REMARK   80  A    between atoms: _186  and  _187
REMARK   81  A    between atoms: _191  and  _192
REMARK   82  A    between atoms: _197  and  _199
REMARK   83  A    between atoms: _199  and  _200
REMARK   84  A    between atoms: _199  and  _202
REMARK   85  A    between atoms: _205  and  _207
REMARK   86  A    between atoms: _207  and  _208
REMARK   87  A    between atoms: _207  and  _210
REMARK   88  A    between atoms: _210  and  _211
REMARK   89  A    between atoms: _216  and  _218
REMARK   90  A    between atoms: _218  and  _219
REMARK   91  A    between atoms: _218  and  _221
REMARK   92  A    between atoms: _221  and  _222
REMARK   93  A    between atoms: _225  and  _227
REMARK   94  A    between atoms: _227  and  _228
REMARK   95  A    between atoms: _227  and  _230
REMARK   96  A    between atoms: _230  and  _231
REMARK   97  A    between atoms: _234  and  _236
REMARK   98  A    between atoms: _236  and  _237
REMARK   99  A    between atoms: _239  and  _241
REMARK  100  A    between atoms: _241  and  _242
REMARK  101  A    between atoms: _241  and  _244
REMARK  102  A    between atoms: _244  and  _245
REMARK  103  A    between atoms: _245  and  _246
REMARK  104  A    between atoms: _246  and  _247
REMARK  105  A    between atoms: _256  and  _258
REMARK  106  A    between atoms: _258  and  _259
REMARK  107  A    between atoms: _258  and  _261
REMARK  108  A    between atoms: _261  and  _262
REMARK  109  A    between atoms: _267  and  _269
REMARK  110  A    between atoms: _269  and  _270
REMARK  111  A    between atoms: _269  and  _272
REMARK  112  A    between atoms: _272  and  _273
REMARK  113  A    between atoms: _273  and  _274
REMARK  114  A    between atoms: _274  and  _275
REMARK  115  A    between atoms: _284  and  _286
REMARK  116  A    between atoms: _286  and  _287
REMARK  117  A    between atoms: _286  and  _289
REMARK  118  A    between atoms: _289  and  _290
REMARK  119  A    between atoms: _293  and  _295
REMARK  120  A    between atoms: _295  and  _296
REMARK  121  A    between atoms: _295  and  _298
REMARK  122  A    between atoms: _298  and  _299
REMARK  123  A    between atoms: _302  and  _304
REMARK  124  A    between atoms: _304  and  _305
REMARK  125  A    between atoms: _304  and  _307
REMARK  126  A    between atoms: _307  and  _308
REMARK  127  A    between atoms: _311  and  _313
REMARK  128  A    between atoms: _313  and  _314
REMARK  129  A    between atoms: _313  and  _316
REMARK  130  A    between atoms: _316  and  _317
REMARK  131  A    between atoms: _320  and  _322
REMARK  132  A    between atoms: _322  and  _323
REMARK  133  A    between atoms: _322  and  _325
REMARK  134  A    between atoms: _325  and  _326
REMARK  135  A    between atoms: _329  and  _331
REMARK  136  A    between atoms: _331  and  _332
REMARK  137  A    between atoms: _334  and  _336
REMARK  138  A    between atoms: _336  and  _337
REMARK  139  A    between atoms: _340  and  _342
REMARK  140  A    between atoms: _342  and  _343
REMARK  141  A    between atoms: _342  and  _345
REMARK  142  A    between atoms: _345  and  _346
REMARK  143  A    between atoms: _349  and  _351
REMARK  144  A    between atoms: _351  and  _352
REMARK  145  A    between atoms: _351  and  _354
REMARK  146  A    between atoms: _354  and  _355
REMARK  147  A    between atoms: _358  and  _360
REMARK  148  A    between atoms: _360  and  _361
REMARK  149  A    between atoms: _360  and  _363
REMARK  150  A    between atoms: _363  and  _364
REMARK  151  A    between atoms: _367  and  _369
REMARK  152  A    between atoms: _369  and  _370
REMARK  153  A    between atoms: _369  and  _372
REMARK  154  A    between atoms: _375  and  _377
REMARK  155  A    between atoms: _377  and  _378
REMARK  156  A    between atoms: _377  and  _380
REMARK  157  A    between atoms: _380  and  _381
REMARK  158  A    between atoms: _381  and  _382
REMARK  159  A    between atoms: _382  and  _383
REMARK  160  A    between atoms: _383  and  _384
REMARK  161  A    between atoms: _388  and  _390
REMARK  162  A    between atoms: _390  and  _391
REMARK  163  A    between atoms: _390  and  _393
REMARK  164  A    between atoms: _393  and  _394
REMARK  165  A    between atoms: _394  and  _395
REMARK  166  A    between atoms: _397  and  _399
REMARK  167  A    between atoms: _399  and  _400
REMARK  168  A    between atoms: _399  and  _402
REMARK  169  A    between atoms: _402  and  _403
REMARK  170  A    between atoms: _406  and  _408
REMARK  171  A    between atoms: _408  and  _409
REMARK  172  A    between atoms: _411  and  _413
REMARK  173  A    between atoms: _413  and  _414
REMARK  174  A    between atoms: _416  and  _418
REMARK  175  A    between atoms: _418  and  _419
REMARK  176  A    between atoms: _418  and  _421
REMARK  177  A    between atoms: _421  and  _422
REMARK  178  A    between atoms: _425  and  _427
REMARK  179  A    between atoms: _427  and  _428
REMARK  180  A    between atoms: _430  and  _432
REMARK  181  A    between atoms: _432  and  _433
REMARK  182  A    between atoms: _435  and  _437
REMARK  183  A    between atoms: _437  and  _438
REMARK  184  A    between atoms: _437  and  _440
REMARK  185  A    between atoms: _440  and  _441
REMARK  186  A    between atoms: _447  and  _449
REMARK  187  A    between atoms: _449  and  _450
REMARK  188  A    between atoms: _449  and  _452
REMARK  189  A    between atoms: _452  and  _453
REMARK  190  A    between atoms: _456  and  _458
REMARK  191  A    between atoms: _458  and  _459
REMARK  192  A    between atoms: _458  and  _461
REMARK  193  A    between atoms: _464  and  _466
REMARK  194  A    between atoms: _466  and  _467
REMARK  195  A    between atoms: _466  and  _469
REMARK  196  A    between atoms: _469  and  _470
REMARK  197  A    between atoms: _473  and  _475
REMARK  198  A    between atoms: _475  and  _476
REMARK  199  A    between atoms: _475  and  _478
REMARK  200  A    between atoms: _478  and  _479
REMARK  201  A    between atoms: _483  and  _484
REMARK  202  A    between atoms: _489  and  _491
REMARK  203  A    between atoms: _491  and  _492
REMARK  204  A    between atoms: _491  and  _494
REMARK  205  A    between atoms: _497  and  _499
REMARK  206  A    between atoms: _499  and  _500
REMARK  207  A    between atoms: _499  and  _502
REMARK  208  A    between atoms: _502  and  _503
REMARK  209  A    between atoms: _508  and  _510
REMARK  210  A    between atoms: _510  and  _511
REMARK  211  A    between atoms: _510  and  _513
REMARK  212  A    between atoms: _513  and  _514
REMARK  213  A    between atoms: _517  and  _519
REMARK  214  A    between atoms: _519  and  _520
REMARK  215  A    between atoms: _519  and  _522
REMARK  216  A    between atoms: _522  and  _523
REMARK  217  A    between atoms: _526  and  _528
REMARK  218  A    between atoms: _528  and  _529
REMARK  219  A    between atoms: _531  and  _533
REMARK  220  A    between atoms: _533  and  _534
REMARK  221  A    between atoms: _533  and  _536
REMARK  222  A    between atoms: _536  and  _537
REMARK  223  A    between atoms: _537  and  _538
REMARK  224  A    between atoms: _538  and  _539
REMARK                            x       y       z     vdW  Elec       q    Type
REMARK                         _______ _______ _______ _____ _____    ______ ____
ROOT
ATOM      1  O   HOH     1       8.995   5.631   7.093  0.00  0.00    +0.000 OA
ENDROOT
TORSDOF 0
REMARK  Name = ../refined-set-2016/1hih/1hih_pocket.pdb
REMARK  224 active torsions:
REMARK  status: ('A' for Active; 'I' for Inactive)
REMARK    1  A    between atoms: _1  and  _3
REMARK    2  A    between atoms: _3  and  _4
REMARK    3  A    between atoms: _3  and  _6
REMARK    4  A    between atoms: _6  and  _7
REMARK    5  A    between atoms: _7  and  _8
REMARK    6  A    between atoms: _8  and  _9
REMARK    7  A    between atoms: _18  and  _20
REMARK    8  A    between atoms: _20  and  _21
REMARK    9  A    between atoms: _20  and  _23
REMARK   10  A    between atoms: _23  and  _24
REMARK   11  A    between atoms: _27  and  _29
REMARK   12  A    between atoms: _29  and  _30
REMARK   13  A    between atoms: _29  and  _32
REMARK   14  A    between atoms: _32  and  _33
REMARK   15  A    between atoms: _36  and  _38
REMARK   16  A    between atoms: _38  and  _39
REMARK   17  A    between atoms: _38  and  _41
REMARK   18  A    between atoms: _41  and  _42
REMARK   19  A    between atoms: _45  and  _47
REMARK   20  A    between atoms: _47  and  _48
REMARK   21  A    between atoms: _47  and  _50
REMARK   22  A    between atoms: _50  and  _51
REMARK   23  A    between atoms: _54  and  _56
REMARK   24  A    between atoms: _56  and  _57
REMARK   25  A    between atoms: _59  and  _61
REMARK   26  A    between atoms: _61  and  _62
REMARK   27  A    between atoms: _65  and  _67
REMARK   28  A    between atoms: _67  and  _68
REMARK   29  A    between atoms: _67  and  _70
REMARK   30  A    between atoms: _70  and  _71
REMARK   31  A    between atoms: _74  and  _76
REMARK   32  A    between atoms: _76  and  _77
REMARK   33  A    between atoms: _76  and  _79
REMARK   34  A    between atoms: _79  and  _80
REMARK   35  A    between atoms: _83  and  _85
REMARK   36  A    between atoms: _85  and  _86
REMARK   37  A    between atoms: _85  and  _88
REMARK   38  A    between atoms: _88  and  _89
REMARK   39  A    between atoms: _92  and  _94
REMARK   40  A    between atoms: _94  and  _95
REMARK   41  A    between atoms: _94  and  _97
REMARK   42  A    between atoms: _100  and  _102
REMARK   43  A    between atoms: _102  and  _103
REMARK   44  A    between atoms: _102  and  _105
REMARK   45  A    between atoms: _105  and  _106
REMARK   46  A    between atoms: _106  and  _107
REMARK   47  A    between atoms: _107  and  _108
REMARK   48  A    between atoms: _108  and  _109
REMARK   49  A    between atoms: _113  and  _115
REMARK   50  A    between atoms: _115  and  _116
REMARK   51  A    between atoms: _115  and  _118
REMARK   52  A    between atoms: _118  and  _119
REMARK   53  A    between atoms: _122  and  _124
REMARK   54  A    between atoms: _124  and  _125
REMARK   55  A    between atoms: _127  and  _129
REMARK   56  A    between atoms: _129  and  _130
REMARK   57  A    between atoms: _132  and  _134
REMARK   58  A    between atoms: _134  and  _135
REMARK   59  A    between atoms: _134  and  _137
REMARK   60  A    between atoms: _137  and  _138
REMARK   61  A    between atoms: _141  and  _143
REMARK   62  A    between atoms: _143  and  _144
REMARK   63  A    between atoms: _146  and  _148
REMARK   64  A    between atoms: _148  and  _149
REMARK   65  A    between atoms: _151  and  _153
REMARK   66  A    between atoms: _153  and  _154
REMARK   67  A    between atoms: _153  and  _156
REMARK   68  A    between atoms: _156  and  _157
REMARK   69  A    between atoms: _163  and  _165
REMARK   70  A    between atoms: _165  and  _166
REMARK   71  A    between atoms: _165  and  _168
REMARK   72  A    between atoms: _168  and  _169
REMARK   73  A    between atoms: _172  and  _174
REMARK   74  A    between atoms: _174  and  _175
REMARK   75  A    between atoms: _174  and  _177
REMARK   76  A    between atoms: _177  and  _178
REMARK   77  A    between atoms: _181  and  _183
REMARK   78  A    between atoms: _183  and  _184
REMARK   79  A    between atoms: _183  and  _186
REMARK   80  A    between atoms: _186  and  _187
REMARK   81  A    between atoms: _191  and  _192
REMARK   82  A    between atoms: _197  and  _199
REMARK   83  A    between atoms: _199  and  _200
REMARK   84  A    between atoms: _199  and  _202
REMARK   85  A    between atoms: _205  and  _207
REMARK   86  A    between atoms: _207  and  _208
REMARK   87  A    between atoms: _207  and  _210
REMARK   88  A    between atoms: _210  and  _211
REMARK   89  A    between atoms: _216  and  _218
REMARK   90  A    between atoms: _218  and  _219
REMARK   91  A    between atoms: _218  and  _221
REMARK   92  A    between atoms: _221  and  _222
REMARK   93  A    between atoms: _225  and  _227
REMARK   94  A    between atoms: _227  and  _228
REMARK   95  A    between atoms: _227  and  _230
REMARK   96  A    between atoms: _230  and  _231
REMARK   97  A    between atoms: _234  and  _236
REMARK   98  A    between atoms: _236  and  _237
REMARK   99  A    between atoms: _239  and  _241
REMARK  100  A    between atoms: _241  and  _242
REMARK  101  A    between atoms: _241  and  _244
REMARK  102  A    between atoms: _244  and  _245
REMARK  103  A    between atoms: _245  and  _246
REMARK  104  A    between atoms: _246  and  _247
REMARK  105  A    between atoms: _256  and  _258
REMARK  106  A    between atoms: _258  and  _259
REMARK  107  A    between atoms: _258  and  _261
REMARK  108  A    between atoms: _261  and  _262
REMARK  109  A    between atoms: _267  and  _269
REMARK  110  A    between atoms: _269  and  _270
REMARK  111  A    between atoms: _269  and  _272
REMARK  112  A    between atoms: _272  and  _273
REMARK  113  A    between atoms: _273  and  _274
REMARK  114  A    between atoms: _274  and  _275
REMARK  115  A    between atoms: _284  and  _286
REMARK  116  A    between atoms: _286  and  _287
REMARK  117  A    between atoms: _286  and  _289
REMARK  118  A    between atoms: _289  and  _290
REMARK  119  A    between atoms: _293  and  _295
REMARK  120  A    between atoms: _295  and  _296
REMARK  121  A    between atoms: _295  and  _298
REMARK  122  A    between atoms: _298  and  _299
REMARK  123  A    between atoms: _302  and  _304
REMARK  124  A    between atoms: _304  and  _305
REMARK  125  A    between atoms: _304  and  _307
REMARK  126  A    between atoms: _307  and  _308
REMARK  127  A    between atoms: _311  and  _313
REMARK  128  A    between atoms: _313  and  _314
REMARK  129  A    between atoms: _313  and  _316
REMARK  130  A    between atoms: _316  and  _317
REMARK  131  A    between atoms: _320  and  _322
REMARK  132  A    between atoms: _322  and  _323
REMARK  133  A    between atoms: _322  and  _325
REMARK  134  A    between atoms: _325  and  _326
REMARK  135  A    between atoms: _329  and  _331
REMARK  136  A    between atoms: _331  and  _332
REMARK  137  A    between atoms: _334  and  _336
REMARK  138  A    between atoms: _336  and  _337
REMARK  139  A    between atoms: _340  and  _342
REMARK  140  A    between atoms: _342  and  _343
REMARK  141  A    between atoms: _342  and  _345
REMARK  142  A    between atoms: _345  and  _346
REMARK  143  A    between atoms: _349  and  _351
REMARK  144  A    between atoms: _351  and  _352
REMARK  145  A    between atoms: _351  and  _354
REMARK  146  A    between atoms: _354  and  _355
REMARK  147  A    between atoms: _358  and  _360
REMARK  148  A    between atoms: _360  and  _361
REMARK  149  A    between atoms: _360  and  _363
REMARK  150  A    between atoms: _363  and  _364
REMARK  151  A    between atoms: _367  and  _369
REMARK  152  A    between atoms: _369  and  _370
REMARK  153  A    between atoms: _369  and  _372
REMARK  154  A    between atoms: _375  and  _377
REMARK  155  A    between atoms: _377  and  _378
REMARK  156  A    between atoms: _377  and  _380
REMARK  157  A    between atoms: _380  and  _381
REMARK  158  A    between atoms: _381  and  _382
REMARK  159  A    between atoms: _382  and  _383
REMARK  160  A    between atoms: _383  and  _384
REMARK  161  A    between atoms: _388  and  _390
REMARK  162  A    between atoms: _390  and  _391
REMARK  163  A    between atoms: _390  and  _393
REMARK  164  A    between atoms: _393  and  _394
REMARK  165  A    between atoms: _394  and  _395
REMARK  166  A    between atoms: _397  and  _399
REMARK  167  A    between atoms: _399  and  _400
REMARK  168  A    between atoms: _399  and  _402
REMARK  169  A    between atoms: _402  and  _403
REMARK  170  A    between atoms: _406  and  _408
REMARK  171  A    between atoms: _408  and  _409
REMARK  172  A    between atoms: _411  and  _413
REMARK  173  A    between atoms: _413  and  _414
REMARK  174  A    between atoms: _416  and  _418
REMARK  175  A    between atoms: _418  and  _419
REMARK  176  A    between atoms: _418  and  _421
REMARK  177  A    between atoms: _421  and  _422
REMARK  178  A    between atoms: _425  and  _427
REMARK  179  A    between atoms: _427  and  _428
REMARK  180  A    between atoms: _430  and  _432
REMARK  181  A    between atoms: _432  and  _433
REMARK  182  A    between atoms: _435  and  _437
REMARK  183  A    between atoms: _437  and  _438
REMARK  184  A    between atoms: _437  and  _440
REMARK  185  A    between atoms: _440  and  _441
REMARK  186  A    between atoms: _447  and  _449
REMARK  187  A    between atoms: _449  and  _450
REMARK  188  A    between atoms: _449  and  _452
REMARK  189  A    between atoms: _452  and  _453
REMARK  190  A    between atoms: _456  and  _458
REMARK  191  A    between atoms: _458  and  _459
REMARK  192  A    between atoms: _458  and  _461
REMARK  193  A    between atoms: _464  and  _466
REMARK  194  A    between atoms: _466  and  _467
REMARK  195  A    between atoms: _466  and  _469
REMARK  196  A    between atoms: _469  and  _470
REMARK  197  A    between atoms: _473  and  _475
REMARK  198  A    between atoms: _475  and  _476
REMARK  199  A    between atoms: _475  and  _478
REMARK  200  A    between atoms: _478  and  _479
REMARK  201  A    between atoms: _483  and  _484
REMARK  202  A    between atoms: _489  and  _491
REMARK  203  A    between atoms: _491  and  _492
REMARK  204  A    between atoms: _491  and  _494
REMARK  205  A    between atoms: _497  and  _499
REMARK  206  A    between atoms: _499  and  _500
REMARK  207  A    between atoms: _499  and  _502
REMARK  208  A    between atoms: _502  and  _503
REMARK  209  A    between atoms: _508  and  _510
REMARK  210  A    between atoms: _510  and  _511
REMARK  211  A    between atoms: _510  and  _513
REMARK  212  A    between atoms: _513  and  _514
REMARK  213  A    between atoms: _517  and  _519
REMARK  214  A    between atoms: _519  and  _520
REMARK  215  A    between atoms: _519  and  _522
REMARK  216  A    between atoms: _522  and  _523
REMARK  217  A    between atoms: _526  and  _528
REMARK  218  A    between atoms: _528  and  _529
REMARK  219  A    between atoms: _531  and  _533
REMARK  220  A    between atoms: _533  and  _534
REMARK  221  A    between atoms: _533  and  _536
REMARK  222  A    between atoms: _536  and  _537
REMARK  223  A    between atoms: _537  and  _538
REMARK  224  A    between atoms: _538  and  _539
REMARK                            x       y       z     vdW  Elec       q    Type
REMARK                         _______ _______ _______ _____ _____    ______ ____
ROOT
ATOM      1  O   HOH     1       4.265  -9.768  13.856  0.00  0.00    +0.000 OA
ENDROOT
TORSDOF 0
REMARK  Name = ../refined-set-2016/1hih/1hih_pocket.pdb
REMARK  224 active torsions:
REMARK  status: ('A' for Active; 'I' for Inactive)
REMARK    1  A    between atoms: _1  and  _3
REMARK    2  A    between atoms: _3  and  _4
REMARK    3  A    between atoms: _3  and  _6
REMARK    4  A    between atoms: _6  and  _7
REMARK    5  A    between atoms: _7  and  _8
REMARK    6  A    between atoms: _8  and  _9
REMARK    7  A    between atoms: _18  and  _20
REMARK    8  A    between atoms: _20  and  _21
REMARK    9  A    between atoms: _20  and  _23
REMARK   10  A    between atoms: _23  and  _24
REMARK   11  A    between atoms: _27  and  _29
REMARK   12  A    between atoms: _29  and  _30
REMARK   13  A    between atoms: _29  and  _32
REMARK   14  A    between atoms: _32  and  _33
REMARK   15  A    between atoms: _36  and  _38
REMARK   16  A    between atoms: _38  and  _39
REMARK   17  A    between atoms: _38  and  _41
REMARK   18  A    between atoms: _41  and  _42
REMARK   19  A    between atoms: _45  and  _47
REMARK   20  A    between atoms: _47  and  _48
REMARK   21  A    between atoms: _47  and  _50
REMARK   22  A    between atoms: _50  and  _51
REMARK   23  A    between atoms: _54  and  _56
REMARK   24  A    between atoms: _56  and  _57
REMARK   25  A    between atoms: _59  and  _61
REMARK   26  A    between atoms: _61  and  _62
REMARK   27  A    between atoms: _65  and  _67
REMARK   28  A    between atoms: _67  and  _68
REMARK   29  A    between atoms: _67  and  _70
REMARK   30  A    between atoms: _70  and  _71
REMARK   31  A    between atoms: _74  and  _76
REMARK   32  A    between atoms: _76  and  _77
REMARK   33  A    between atoms: _76  and  _79
REMARK   34  A    between atoms: _79  and  _80
REMARK   35  A    between atoms: _83  and  _85
REMARK   36  A    between atoms: _85  and  _86
REMARK   37  A    between atoms: _85  and  _88
REMARK   38  A    between atoms: _88  and  _89
REMARK   39  A    between atoms: _92  and  _94
REMARK   40  A    between atoms: _94  and  _95
REMARK   41  A    between atoms: _94  and  _97
REMARK   42  A    between atoms: _100  and  _102
REMARK   43  A    between atoms: _102  and  _103
REMARK   44  A    between atoms: _102  and  _105
REMARK   45  A    between atoms: _105  and  _106
REMARK   46  A    between atoms: _106  and  _107
REMARK   47  A    between atoms: _107  and  _108
REMARK   48  A    between atoms: _108  and  _109
REMARK   49  A    between atoms: _113  and  _115
REMARK   50  A    between atoms: _115  and  _116
REMARK   51  A    between atoms: _115  and  _118
REMARK   52  A    between atoms: _118  and  _119
REMARK   53  A    between atoms: _122  and  _124
REMARK   54  A    between atoms: _124  and  _125
REMARK   55  A    between atoms: _127  and  _129
REMARK   56  A    between atoms: _129  and  _130
REMARK   57  A    between atoms: _132  and  _134
REMARK   58  A    between atoms: _134  and  _135
REMARK   59  A    between atoms: _134  and  _137
REMARK   60  A    between atoms: _137  and  _138
REMARK   61  A    between atoms: _141  and  _143
REMARK   62  A    between atoms: _143  and  _144
REMARK   63  A    between atoms: _146  and  _148
REMARK   64  A    between atoms: _148  and  _149
REMARK   65  A    between atoms: _151  and  _153
REMARK   66  A    between atoms: _153  and  _154
REMARK   67  A    between atoms: _153  and  _156
REMARK   68  A    between atoms: _156  and  _157
REMARK   69  A    between atoms: _163  and  _165
REMARK   70  A    between atoms: _165  and  _166
REMARK   71  A    between atoms: _165  and  _168
REMARK   72  A    between atoms: _168  and  _169
REMARK   73  A    between atoms: _172  and  _174
REMARK   74  A    between atoms: _174  and  _175
REMARK   75  A    between atoms: _174  and  _177
REMARK   76  A    between atoms: _177  and  _178
REMARK   77  A    between atoms: _181  and  _183
REMARK   78  A    between atoms: _183  and  _184
REMARK   79  A    between atoms: _183  and  _186
REMARK   80  A    between atoms: _186  and  _187
REMARK   81  A    between atoms: _191  and  _192
REMARK   82  A    between atoms: _197  and  _199
REMARK   83  A    between atoms: _199  and  _200
REMARK   84  A    between atoms: _199  and  _202
REMARK   85  A    between atoms: _205  and  _207
REMARK   86  A    between atoms: _207  and  _208
REMARK   87  A    between atoms: _207  and  _210
REMARK   88  A    between atoms: _210  and  _211
REMARK   89  A    between atoms: _216  and  _218
REMARK   90  A    between atoms: _218  and  _219
REMARK   91  A    between atoms: _218  and  _221
REMARK   92  A    between atoms: _221  and  _222
REMARK   93  A    between atoms: _225  and  _227
REMARK   94  A    between atoms: _227  and  _228
REMARK   95  A    between atoms: _227  and  _230
REMARK   96  A    between atoms: _230  and  _231
REMARK   97  A    between atoms: _234  and  _236
REMARK   98  A    between atoms: _236  and  _237
REMARK   99  A    between atoms: _239  and  _241
REMARK  100  A    between atoms: _241  and  _242
REMARK  101  A    between atoms: _241  and  _244
REMARK  102  A    between atoms: _244  and  _245
REMARK  103  A    between atoms: _245  and  _246
REMARK  104  A    between atoms: _246  and  _247
REMARK  105  A    between atoms: _256  and  _258
REMARK  106  A    between atoms: _258  and  _259
REMARK  107  A    between atoms: _258  and  _261
REMARK  108  A    between atoms: _261  and  _262
REMARK  109  A    between atoms: _267  and  _269
REMARK  110  A    between atoms: _269  and  _270
REMARK  111  A    between atoms: _269  and  _272
REMARK  112  A    between atoms: _272  and  _273
REMARK  113  A    between atoms: _273  and  _274
REMARK  114  A    between atoms: _274  and  _275
REMARK  115  A    between atoms: _284  and  _286
REMARK  116  A    between atoms: _286  and  _287
REMARK  117  A    between atoms: _286  and  _289
REMARK  118  A    between atoms: _289  and  _290
REMARK  119  A    between atoms: _293  and  _295
REMARK  120  A    between atoms: _295  and  _296
REMARK  121  A    between atoms: _295  and  _298
REMARK  122  A    between atoms: _298  and  _299
REMARK  123  A    between atoms: _302  and  _304
REMARK  124  A    between atoms: _304  and  _305
REMARK  125  A    between atoms: _304  and  _307
REMARK  126  A    between atoms: _307  and  _308
REMARK  127  A    between atoms: _311  and  _313
REMARK  128  A    between atoms: _313  and  _314
REMARK  129  A    between atoms: _313  and  _316
REMARK  130  A    between atoms: _316  and  _317
REMARK  131  A    between atoms: _320  and  _322
REMARK  132  A    between atoms: _322  and  _323
REMARK  133  A    between atoms: _322  and  _325
REMARK  134  A    between atoms: _325  and  _326
REMARK  135  A    between atoms: _329  and  _331
REMARK  136  A    between atoms: _331  and  _332
REMARK  137  A    between atoms: _334  and  _336
REMARK  138  A    between atoms: _336  and  _337
REMARK  139  A    between atoms: _340  and  _342
REMARK  140  A    between atoms: _342  and  _343
REMARK  141  A    between atoms: _342  and  _345
REMARK  142  A    between atoms: _345  and  _346
REMARK  143  A    between atoms: _349  and  _351
REMARK  144  A    between atoms: _351  and  _352
REMARK  145  A    between atoms: _351  and  _354
REMARK  146  A    between atoms: _354  and  _355
REMARK  147  A    between atoms: _358  and  _360
REMARK  148  A    between atoms: _360  and  _361
REMARK  149  A    between atoms: _360  and  _363
REMARK  150  A    between atoms: _363  and  _364
REMARK  151  A    between atoms: _367  and  _369
REMARK  152  A    between atoms: _369  and  _370
REMARK  153  A    between atoms: _369  and  _372
REMARK  154  A    between atoms: _375  and  _377
REMARK  155  A    between atoms: _377  and  _378
REMARK  156  A    between atoms: _377  and  _380
REMARK  157  A    between atoms: _380  and  _381
REMARK  158  A    between atoms: _381  and  _382
REMARK  159  A    between atoms: _382  and  _383
REMARK  160  A    between atoms: _383  and  _384
REMARK  161  A    between atoms: _388  and  _390
REMARK  162  A    between atoms: _390  and  _391
REMARK  163  A    between atoms: _390  and  _393
REMARK  164  A    between atoms: _393  and  _394
REMARK  165  A    between atoms: _394  and  _395
REMARK  166  A    between atoms: _397  and  _399
REMARK  167  A    between atoms: _399  and  _400
REMARK  168  A    between atoms: _399  and  _402
REMARK  169  A    between atoms: _402  and  _403
REMARK  170  A    between atoms: _406  and  _408
REMARK  171  A    between atoms: _408  and  _409
REMARK  172  A    between atoms: _411  and  _413
REMARK  173  A    between atoms: _413  and  _414
REMARK  174  A    between atoms: _416  and  _418
REMARK  175  A    between atoms: _418  and  _419
REMARK  176  A    between atoms: _418  and  _421
REMARK  177  A    between atoms: _421  and  _422
REMARK  178  A    between atoms: _425  and  _427
REMARK  179  A    between atoms: _427  and  _428
REMARK  180  A    between atoms: _430  and  _432
REMARK  181  A    between atoms: _432  and  _433
REMARK  182  A    between atoms: _435  and  _437
REMARK  183  A    between atoms: _437  and  _438
REMARK  184  A    between atoms: _437  and  _440
REMARK  185  A    between atoms: _440  and  _441
REMARK  186  A    between atoms: _447  and  _449
REMARK  187  A    between atoms: _449  and  _450
REMARK  188  A    between atoms: _449  and  _452
REMARK  189  A    between atoms: _452  and  _453
REMARK  190  A    between atoms: _456  and  _458
REMARK  191  A    between atoms: _458  and  _459
REMARK  192  A    between atoms: _458  and  _461
REMARK  193  A    between atoms: _464  and  _466
REMARK  194  A    between atoms: _466  and  _467
REMARK  195  A    between atoms: _466  and  _469
REMARK  196  A    between atoms: _469  and  _470
REMARK  197  A    between atoms: _473  and  _475
REMARK  198  A    between atoms: _475  and  _476
REMARK  199  A    between atoms: _475  and  _478
REMARK  200  A    between atoms: _478  and  _479
REMARK  201  A    between atoms: _483  and  _484
REMARK  202  A    between atoms: _489  and  _491
REMARK  203  A    between atoms: _491  and  _492
REMARK  204  A    between atoms: _491  and  _494
REMARK  205  A    between atoms: _497  and  _499
REMARK  206  A    between atoms: _499  and  _500
REMARK  207  A    between atoms: _499  and  _502
REMARK  208  A    between atoms: _502  and  _503
REMARK  209  A    between atoms: _508  and  _510
REMARK  210  A    between atoms: _510  and  _511
REMARK  211  A    between atoms: _510  and  _513
REMARK  212  A    between atoms: _513  and  _514
REMARK  213  A    between atoms: _517  and  _519
REMARK  214  A    between atoms: _519  and  _520
REMARK  215  A    between atoms: _519  and  _522
REMARK  216  A    between atoms: _522  and  _523
REMARK  217  A    between atoms: _526  and  _528
REMARK  218  A    between atoms: _528  and  _529
REMARK  219  A    between atoms: _531  and  _533
REMARK  220  A    between atoms: _533  and  _534
REMARK  221  A    between atoms: _533  and  _536
REMARK  222  A    between atoms: _536  and  _537
REMARK  223  A    between atoms: _537  and  _538
REMARK  224  A    between atoms: _538  and  _539
REMARK                            x       y       z     vdW  Elec       q    Type
REMARK                         _______ _______ _______ _____ _____    ______ ____
ROOT
ATOM      1  O   HOH     1       3.974  11.170   9.905  0.00  0.00    +0.000 OA
ENDROOT
TORSDOF 0
