REMARK  Name = ../refined-set-2016/4abf/4abf_pocket.pdb
REMARK  137 active torsions:
REMARK  status: ('A' for Active; 'I' for Inactive)
REMARK    1  A    between atoms: _1  and  _3
REMARK    2  A    between atoms: _3  and  _4
REMARK    3  A    between atoms: _3  and  _6
REMARK    4  A    between atoms: _9  and  _11
REMARK    5  A    between atoms: _11  and  _12
REMARK    6  A    between atoms: _11  and  _14
REMARK    7  A    between atoms: _14  and  _15
REMARK    8  A    between atoms: _20  and  _22
REMARK    9  A    between atoms: _22  and  _23
REMARK   10  A    between atoms: _22  and  _25
REMARK   11  A    between atoms: _25  and  _26
REMARK   12  A    between atoms: _29  and  _31
REMARK   13  A    between atoms: _31  and  _32
REMARK   14  A    between atoms: _31  and  _34
REMARK   15  A    between atoms: _34  and  _35
REMARK   16  A    between atoms: _38  and  _40
REMARK   17  A    between atoms: _40  and  _41
REMARK   18  A    between atoms: _40  and  _43
REMARK   19  A    between atoms: _43  and  _44
REMARK   20  A    between atoms: _47  and  _49
REMARK   21  A    between atoms: _49  and  _50
REMARK   22  A    between atoms: _49  and  _52
REMARK   23  A    between atoms: _52  and  _53
REMARK   24  A    between atoms: _58  and  _60
REMARK   25  A    between atoms: _60  and  _61
REMARK   26  A    between atoms: _60  and  _63
REMARK   27  A    between atoms: _63  and  _64
REMARK   28  A    between atoms: _64  and  _65
REMARK   29  A    between atoms: _65  and  _66
REMARK   30  A    between atoms: _66  and  _67
REMARK   31  A    between atoms: _71  and  _73
REMARK   32  A    between atoms: _73  and  _74
REMARK   33  A    between atoms: _73  and  _76
REMARK   34  A    between atoms: _76  and  _77
REMARK   35  A    between atoms: _79  and  _81
REMARK   36  A    between atoms: _81  and  _82
REMARK   37  A    between atoms: _81  and  _84
REMARK   38  A    between atoms: _84  and  _85
REMARK   39  A    between atoms: _90  and  _91
REMARK   40  A    between atoms: _93  and  _95
REMARK   41  A    between atoms: _95  and  _96
REMARK   42  A    between atoms: _95  and  _98
REMARK   43  A    between atoms: _98  and  _99
REMARK   44  A    between atoms: _104  and  _105
REMARK   45  A    between atoms: _107  and  _109
REMARK   46  A    between atoms: _109  and  _110
REMARK   47  A    between atoms: _113  and  _115
REMARK   48  A    between atoms: _115  and  _116
REMARK   49  A    between atoms: _115  and  _118
REMARK   50  A    between atoms: _118  and  _119
REMARK   51  A    between atoms: _119  and  _120
REMARK   52  A    between atoms: _120  and  _121
REMARK   53  A    between atoms: _121  and  _122
REMARK   54  A    between atoms: _126  and  _128
REMARK   55  A    between atoms: _128  and  _129
REMARK   56  A    between atoms: _128  and  _131
REMARK   57  A    between atoms: _131  and  _132
REMARK   58  A    between atoms: _135  and  _137
REMARK   59  A    between atoms: _137  and  _138
REMARK   60  A    between atoms: _137  and  _140
REMARK   61  A    between atoms: _140  and  _141
REMARK   62  A    between atoms: _143  and  _145
REMARK   63  A    between atoms: _145  and  _146
REMARK   64  A    between atoms: _145  and  _148
REMARK   65  A    between atoms: _148  and  _149
REMARK   66  A    between atoms: _149  and  _259
REMARK   67  A    between atoms: _150  and  _152
REMARK   68  A    between atoms: _152  and  _153
REMARK   69  A    between atoms: _152  and  _155
REMARK   70  A    between atoms: _155  and  _156
REMARK   71  A    between atoms: _156  and  _157
REMARK   72  A    between atoms: _162  and  _164
REMARK   73  A    between atoms: _164  and  _165
REMARK   74  A    between atoms: _167  and  _169
REMARK   75  A    between atoms: _169  and  _170
REMARK   76  A    between atoms: _169  and  _172
REMARK   77  A    between atoms: _172  and  _173
REMARK   78  A    between atoms: _176  and  _178
REMARK   79  A    between atoms: _178  and  _179
REMARK   80  A    between atoms: _178  and  _181
REMARK   81  A    between atoms: _181  and  _182
REMARK   82  A    between atoms: _184  and  _186
REMARK   83  A    between atoms: _186  and  _187
REMARK   84  A    between atoms: _189  and  _191
REMARK   85  A    between atoms: _191  and  _192
REMARK   86  A    between atoms: _194  and  _196
REMARK   87  A    between atoms: _196  and  _197
REMARK   88  A    between atoms: _196  and  _199
REMARK   89  A    between atoms: _199  and  _200
REMARK   90  A    between atoms: _203  and  _205
REMARK   91  A    between atoms: _205  and  _206
REMARK   92  A    between atoms: _205  and  _208
REMARK   93  A    between atoms: _211  and  _213
REMARK   94  A    between atoms: _213  and  _214
REMARK   95  A    between atoms: _213  and  _216
REMARK   96  A    between atoms: _216  and  _217
REMARK   97  A    between atoms: _219  and  _221
REMARK   98  A    between atoms: _221  and  _222
REMARK   99  A    between atoms: _221  and  _224
REMARK  100  A    between atoms: _224  and  _225
REMARK  101  A    between atoms: _235  and  _237
REMARK  102  A    between atoms: _237  and  _238
REMARK  103  A    between atoms: _240  and  _242
REMARK  104  A    between atoms: _242  and  _243
REMARK  105  A    between atoms: _242  and  _245
REMARK  106  A    between atoms: _245  and  _246
REMARK  107  A    between atoms: _248  and  _250
REMARK  108  A    between atoms: _250  and  _251
REMARK  109  A    between atoms: _253  and  _255
REMARK  110  A    between atoms: _255  and  _256
REMARK  111  A    between atoms: _255  and  _258
REMARK  112  A    between atoms: _258  and  _259
REMARK  113  A    between atoms: _260  and  _262
REMARK  114  A    between atoms: _262  and  _263
REMARK  115  A    between atoms: _266  and  _268
REMARK  116  A    between atoms: _268  and  _269
REMARK  117  A    between atoms: _268  and  _271
REMARK  118  A    between atoms: _271  and  _272
REMARK  119  A    between atoms: _272  and  _273
REMARK  120  A    between atoms: _278  and  _280
REMARK  121  A    between atoms: _280  and  _281
REMARK  122  A    between atoms: _280  and  _283
REMARK  123  A    between atoms: _283  and  _284
REMARK  124  A    between atoms: _284  and  _285
REMARK  125  A    between atoms: _285  and  _286
REMARK  126  A    between atoms: _286  and  _287
REMARK  127  A    between atoms: _292  and  _293
REMARK  128  A    between atoms: _298  and  _300
REMARK  129  A    between atoms: _300  and  _301
REMARK  130  A    between atoms: _303  and  _305
REMARK  131  A    between atoms: _305  and  _306
REMARK  132  A    between atoms: _305  and  _308
REMARK  133  A    between atoms: _311  and  _313
REMARK  134  A    between atoms: _313  and  _314
REMARK  135  A    between atoms: _313  and  _316
REMARK  136  A    between atoms: _316  and  _317
REMARK  137  A    between atoms: _322  and  _323
REMARK                            x       y       z     vdW  Elec       q    Type
REMARK                         _______ _______ _______ _____ _____    ______ ____
ROOT
ATOM      1  CA  VAL A   1      10.322 -19.801  17.548  0.00  0.00    +0.133 C 
ENDROOT
BRANCH   1   2
ATOM      2  CB  VAL A   1      10.092 -18.555  18.430  0.00  0.00    +0.023 C 
ATOM      3  CG2 VAL A   1      11.233 -18.398  19.423  0.00  0.00    +0.002 C 
ATOM      4  CG1 VAL A   1       9.899 -17.301  17.596  0.00  0.00    +0.002 C 
ENDBRANCH   1   2
BRANCH   1   5
ATOM      5  N   VAL A   1       9.148 -20.007  16.613  0.00  0.00    -0.239 NA
ATOM      6  H   VAL A   1       8.180 -19.888  16.975  0.00  0.00    +0.142 HD
ENDBRANCH   1   5
BRANCH   1   7
ATOM      7  C   VAL A   1      10.453 -21.073  18.390  0.00  0.00    +0.224 C 
ATOM      8  O   VAL A   1       9.482 -21.549  18.973  0.00  0.00    -0.287 OA
ENDBRANCH   1   7
TORSDOF 3
REMARK  Name = ../refined-set-2016/4abf/4abf_pocket.pdb
REMARK  137 active torsions:
REMARK  status: ('A' for Active; 'I' for Inactive)
REMARK    1  A    between atoms: _1  and  _3
REMARK    2  A    between atoms: _3  and  _4
REMARK    3  A    between atoms: _3  and  _6
REMARK    4  A    between atoms: _9  and  _11
REMARK    5  A    between atoms: _11  and  _12
REMARK    6  A    between atoms: _11  and  _14
REMARK    7  A    between atoms: _14  and  _15
REMARK    8  A    between atoms: _20  and  _22
REMARK    9  A    between atoms: _22  and  _23
REMARK   10  A    between atoms: _22  and  _25
REMARK   11  A    between atoms: _25  and  _26
REMARK   12  A    between atoms: _29  and  _31
REMARK   13  A    between atoms: _31  and  _32
REMARK   14  A    between atoms: _31  and  _34
REMARK   15  A    between atoms: _34  and  _35
REMARK   16  A    between atoms: _38  and  _40
REMARK   17  A    between atoms: _40  and  _41
REMARK   18  A    between atoms: _40  and  _43
REMARK   19  A    between atoms: _43  and  _44
REMARK   20  A    between atoms: _47  and  _49
REMARK   21  A    between atoms: _49  and  _50
REMARK   22  A    between atoms: _49  and  _52
REMARK   23  A    between atoms: _52  and  _53
REMARK   24  A    between atoms: _58  and  _60
REMARK   25  A    between atoms: _60  and  _61
REMARK   26  A    between atoms: _60  and  _63
REMARK   27  A    between atoms: _63  and  _64
REMARK   28  A    between atoms: _64  and  _65
REMARK   29  A    between atoms: _65  and  _66
REMARK   30  A    between atoms: _66  and  _67
REMARK   31  A    between atoms: _71  and  _73
REMARK   32  A    between atoms: _73  and  _74
REMARK   33  A    between atoms: _73  and  _76
REMARK   34  A    between atoms: _76  and  _77
REMARK   35  A    between atoms: _79  and  _81
REMARK   36  A    between atoms: _81  and  _82
REMARK   37  A    between atoms: _81  and  _84
REMARK   38  A    between atoms: _84  and  _85
REMARK   39  A    between atoms: _90  and  _91
REMARK   40  A    between atoms: _93  and  _95
REMARK   41  A    between atoms: _95  and  _96
REMARK   42  A    between atoms: _95  and  _98
REMARK   43  A    between atoms: _98  and  _99
REMARK   44  A    between atoms: _104  and  _105
REMARK   45  A    between atoms: _107  and  _109
REMARK   46  A    between atoms: _109  and  _110
REMARK   47  A    between atoms: _113  and  _115
REMARK   48  A    between atoms: _115  and  _116
REMARK   49  A    between atoms: _115  and  _118
REMARK   50  A    between atoms: _118  and  _119
REMARK   51  A    between atoms: _119  and  _120
REMARK   52  A    between atoms: _120  and  _121
REMARK   53  A    between atoms: _121  and  _122
REMARK   54  A    between atoms: _126  and  _128
REMARK   55  A    between atoms: _128  and  _129
REMARK   56  A    between atoms: _128  and  _131
REMARK   57  A    between atoms: _131  and  _132
REMARK   58  A    between atoms: _135  and  _137
REMARK   59  A    between atoms: _137  and  _138
REMARK   60  A    between atoms: _137  and  _140
REMARK   61  A    between atoms: _140  and  _141
REMARK   62  A    between atoms: _143  and  _145
REMARK   63  A    between atoms: _145  and  _146
REMARK   64  A    between atoms: _145  and  _148
REMARK   65  A    between atoms: _148  and  _149
REMARK   66  A    between atoms: _149  and  _259
REMARK   67  A    between atoms: _150  and  _152
REMARK   68  A    between atoms: _152  and  _153
REMARK   69  A    between atoms: _152  and  _155
REMARK   70  A    between atoms: _155  and  _156
REMARK   71  A    between atoms: _156  and  _157
REMARK   72  A    between atoms: _162  and  _164
REMARK   73  A    between atoms: _164  and  _165
REMARK   74  A    between atoms: _167  and  _169
REMARK   75  A    between atoms: _169  and  _170
REMARK   76  A    between atoms: _169  and  _172
REMARK   77  A    between atoms: _172  and  _173
REMARK   78  A    between atoms: _176  and  _178
REMARK   79  A    between atoms: _178  and  _179
REMARK   80  A    between atoms: _178  and  _181
REMARK   81  A    between atoms: _181  and  _182
REMARK   82  A    between atoms: _184  and  _186
REMARK   83  A    between atoms: _186  and  _187
REMARK   84  A    between atoms: _189  and  _191
REMARK   85  A    between atoms: _191  and  _192
REMARK   86  A    between atoms: _194  and  _196
REMARK   87  A    between atoms: _196  and  _197
REMARK   88  A    between atoms: _196  and  _199
REMARK   89  A    between atoms: _199  and  _200
REMARK   90  A    between atoms: _203  and  _205
REMARK   91  A    between atoms: _205  and  _206
REMARK   92  A    between atoms: _205  and  _208
REMARK   93  A    between atoms: _211  and  _213
REMARK   94  A    between atoms: _213  and  _214
REMARK   95  A    between atoms: _213  and  _216
REMARK   96  A    between atoms: _216  and  _217
REMARK   97  A    between atoms: _219  and  _221
REMARK   98  A    between atoms: _221  and  _222
REMARK   99  A    between atoms: _221  and  _224
REMARK  100  A    between atoms: _224  and  _225
REMARK  101  A    between atoms: _235  and  _237
REMARK  102  A    between atoms: _237  and  _238
REMARK  103  A    between atoms: _240  and  _242
REMARK  104  A    between atoms: _242  and  _243
REMARK  105  A    between atoms: _242  and  _245
REMARK  106  A    between atoms: _245  and  _246
REMARK  107  A    between atoms: _248  and  _250
REMARK  108  A    between atoms: _250  and  _251
REMARK  109  A    between atoms: _253  and  _255
REMARK  110  A    between atoms: _255  and  _256
REMARK  111  A    between atoms: _255  and  _258
REMARK  112  A    between atoms: _258  and  _259
REMARK  113  A    between atoms: _260  and  _262
REMARK  114  A    between atoms: _262  and  _263
REMARK  115  A    between atoms: _266  and  _268
REMARK  116  A    between atoms: _268  and  _269
REMARK  117  A    between atoms: _268  and  _271
REMARK  118  A    between atoms: _271  and  _272
REMARK  119  A    between atoms: _272  and  _273
REMARK  120  A    between atoms: _278  and  _280
REMARK  121  A    between atoms: _280  and  _281
REMARK  122  A    between atoms: _280  and  _283
REMARK  123  A    between atoms: _283  and  _284
REMARK  124  A    between atoms: _284  and  _285
REMARK  125  A    between atoms: _285  and  _286
REMARK  126  A    between atoms: _286  and  _287
REMARK  127  A    between atoms: _292  and  _293
REMARK  128  A    between atoms: _298  and  _300
REMARK  129  A    between atoms: _300  and  _301
REMARK  130  A    between atoms: _303  and  _305
REMARK  131  A    between atoms: _305  and  _306
REMARK  132  A    between atoms: _305  and  _308
REMARK  133  A    between atoms: _311  and  _313
REMARK  134  A    between atoms: _313  and  _314
REMARK  135  A    between atoms: _313  and  _316
REMARK  136  A    between atoms: _316  and  _317
REMARK  137  A    between atoms: _322  and  _323
REMARK                            x       y       z     vdW  Elec       q    Type
REMARK                         _______ _______ _______ _____ _____    ______ ____
ROOT
ATOM      1  CB  HIS A   1      -5.725 -11.019  10.048  0.00  0.00    +0.072 C 
ENDROOT
BRANCH   1   2
ATOM      2  CG  HIS A   1      -4.598 -11.883  10.455  0.00  0.00    +0.082 A 
ATOM      3  ND1 HIS A   1      -4.696 -12.953  11.314  0.00  0.00    -0.227 NA
ATOM      4  CE1 HIS A   1      -3.498 -13.504  11.533  0.00  0.00    +0.199 A 
ATOM      5  NE2 HIS A   1      -2.589 -12.752  10.843  0.00  0.00    -0.221 NA
ATOM      6  CD2 HIS A   1      -3.259 -11.747  10.188  0.00  0.00    +0.115 A 
ENDBRANCH   1   2
BRANCH   1   7
ATOM      7  CA  HIS A   1      -6.310 -11.330   8.676  0.00  0.00    +0.139 C 
BRANCH   7   8
ATOM      8  N   HIS A   1      -7.251 -12.469   8.702  0.00  0.00    -0.239 NA
ATOM      9  H   HIS A   1      -7.231 -13.156   9.482  0.00  0.00    +0.142 HD
ENDBRANCH   7   8
BRANCH   7  10
ATOM     10  C   HIS A   1      -5.266 -11.552   7.608  0.00  0.00    +0.224 C 
ATOM     11  O   HIS A   1      -4.495 -10.584   7.290  0.00  0.00    -0.287 OA
ENDBRANCH   7  10
ENDBRANCH   1   7
TORSDOF 4
REMARK  Name = ../refined-set-2016/4abf/4abf_pocket.pdb
REMARK  137 active torsions:
REMARK  status: ('A' for Active; 'I' for Inactive)
REMARK    1  A    between atoms: _1  and  _3
REMARK    2  A    between atoms: _3  and  _4
REMARK    3  A    between atoms: _3  and  _6
REMARK    4  A    between atoms: _9  and  _11
REMARK    5  A    between atoms: _11  and  _12
REMARK    6  A    between atoms: _11  and  _14
REMARK    7  A    between atoms: _14  and  _15
REMARK    8  A    between atoms: _20  and  _22
REMARK    9  A    between atoms: _22  and  _23
REMARK   10  A    between atoms: _22  and  _25
REMARK   11  A    between atoms: _25  and  _26
REMARK   12  A    between atoms: _29  and  _31
REMARK   13  A    between atoms: _31  and  _32
REMARK   14  A    between atoms: _31  and  _34
REMARK   15  A    between atoms: _34  and  _35
REMARK   16  A    between atoms: _38  and  _40
REMARK   17  A    between atoms: _40  and  _41
REMARK   18  A    between atoms: _40  and  _43
REMARK   19  A    between atoms: _43  and  _44
REMARK   20  A    between atoms: _47  and  _49
REMARK   21  A    between atoms: _49  and  _50
REMARK   22  A    between atoms: _49  and  _52
REMARK   23  A    between atoms: _52  and  _53
REMARK   24  A    between atoms: _58  and  _60
REMARK   25  A    between atoms: _60  and  _61
REMARK   26  A    between atoms: _60  and  _63
REMARK   27  A    between atoms: _63  and  _64
REMARK   28  A    between atoms: _64  and  _65
REMARK   29  A    between atoms: _65  and  _66
REMARK   30  A    between atoms: _66  and  _67
REMARK   31  A    between atoms: _71  and  _73
REMARK   32  A    between atoms: _73  and  _74
REMARK   33  A    between atoms: _73  and  _76
REMARK   34  A    between atoms: _76  and  _77
REMARK   35  A    between atoms: _79  and  _81
REMARK   36  A    between atoms: _81  and  _82
REMARK   37  A    between atoms: _81  and  _84
REMARK   38  A    between atoms: _84  and  _85
REMARK   39  A    between atoms: _90  and  _91
REMARK   40  A    between atoms: _93  and  _95
REMARK   41  A    between atoms: _95  and  _96
REMARK   42  A    between atoms: _95  and  _98
REMARK   43  A    between atoms: _98  and  _99
REMARK   44  A    between atoms: _104  and  _105
REMARK   45  A    between atoms: _107  and  _109
REMARK   46  A    between atoms: _109  and  _110
REMARK   47  A    between atoms: _113  and  _115
REMARK   48  A    between atoms: _115  and  _116
REMARK   49  A    between atoms: _115  and  _118
REMARK   50  A    between atoms: _118  and  _119
REMARK   51  A    between atoms: _119  and  _120
REMARK   52  A    between atoms: _120  and  _121
REMARK   53  A    between atoms: _121  and  _122
REMARK   54  A    between atoms: _126  and  _128
REMARK   55  A    between atoms: _128  and  _129
REMARK   56  A    between atoms: _128  and  _131
REMARK   57  A    between atoms: _131  and  _132
REMARK   58  A    between atoms: _135  and  _137
REMARK   59  A    between atoms: _137  and  _138
REMARK   60  A    between atoms: _137  and  _140
REMARK   61  A    between atoms: _140  and  _141
REMARK   62  A    between atoms: _143  and  _145
REMARK   63  A    between atoms: _145  and  _146
REMARK   64  A    between atoms: _145  and  _148
REMARK   65  A    between atoms: _148  and  _149
REMARK   66  A    between atoms: _149  and  _259
REMARK   67  A    between atoms: _150  and  _152
REMARK   68  A    between atoms: _152  and  _153
REMARK   69  A    between atoms: _152  and  _155
REMARK   70  A    between atoms: _155  and  _156
REMARK   71  A    between atoms: _156  and  _157
REMARK   72  A    between atoms: _162  and  _164
REMARK   73  A    between atoms: _164  and  _165
REMARK   74  A    between atoms: _167  and  _169
REMARK   75  A    between atoms: _169  and  _170
REMARK   76  A    between atoms: _169  and  _172
REMARK   77  A    between atoms: _172  and  _173
REMARK   78  A    between atoms: _176  and  _178
REMARK   79  A    between atoms: _178  and  _179
REMARK   80  A    between atoms: _178  and  _181
REMARK   81  A    between atoms: _181  and  _182
REMARK   82  A    between atoms: _184  and  _186
REMARK   83  A    between atoms: _186  and  _187
REMARK   84  A    between atoms: _189  and  _191
REMARK   85  A    between atoms: _191  and  _192
REMARK   86  A    between atoms: _194  and  _196
REMARK   87  A    between atoms: _196  and  _197
REMARK   88  A    between atoms: _196  and  _199
REMARK   89  A    between atoms: _199  and  _200
REMARK   90  A    between atoms: _203  and  _205
REMARK   91  A    between atoms: _205  and  _206
REMARK   92  A    between atoms: _205  and  _208
REMARK   93  A    between atoms: _211  and  _213
REMARK   94  A    between atoms: _213  and  _214
REMARK   95  A    between atoms: _213  and  _216
REMARK   96  A    between atoms: _216  and  _217
REMARK   97  A    between atoms: _219  and  _221
REMARK   98  A    between atoms: _221  and  _222
REMARK   99  A    between atoms: _221  and  _224
REMARK  100  A    between atoms: _224  and  _225
REMARK  101  A    between atoms: _235  and  _237
REMARK  102  A    between atoms: _237  and  _238
REMARK  103  A    between atoms: _240  and  _242
REMARK  104  A    between atoms: _242  and  _243
REMARK  105  A    between atoms: _242  and  _245
REMARK  106  A    between atoms: _245  and  _246
REMARK  107  A    between atoms: _248  and  _250
REMARK  108  A    between atoms: _250  and  _251
REMARK  109  A    between atoms: _253  and  _255
REMARK  110  A    between atoms: _255  and  _256
REMARK  111  A    between atoms: _255  and  _258
REMARK  112  A    between atoms: _258  and  _259
REMARK  113  A    between atoms: _260  and  _262
REMARK  114  A    between atoms: _262  and  _263
REMARK  115  A    between atoms: _266  and  _268
REMARK  116  A    between atoms: _268  and  _269
REMARK  117  A    between atoms: _268  and  _271
REMARK  118  A    between atoms: _271  and  _272
REMARK  119  A    between atoms: _272  and  _273
REMARK  120  A    between atoms: _278  and  _280
REMARK  121  A    between atoms: _280  and  _281
REMARK  122  A    between atoms: _280  and  _283
REMARK  123  A    between atoms: _283  and  _284
REMARK  124  A    between atoms: _284  and  _285
REMARK  125  A    between atoms: _285  and  _286
REMARK  126  A    between atoms: _286  and  _287
REMARK  127  A    between atoms: _292  and  _293
REMARK  128  A    between atoms: _298  and  _300
REMARK  129  A    between atoms: _300  and  _301
REMARK  130  A    between atoms: _303  and  _305
REMARK  131  A    between atoms: _305  and  _306
REMARK  132  A    between atoms: _305  and  _308
REMARK  133  A    between atoms: _311  and  _313
REMARK  134  A    between atoms: _313  and  _314
REMARK  135  A    between atoms: _313  and  _316
REMARK  136  A    between atoms: _316  and  _317
REMARK  137  A    between atoms: _322  and  _323
REMARK                            x       y       z     vdW  Elec       q    Type
REMARK                         _______ _______ _______ _____ _____    ______ ____
ROOT
ATOM      1  CA  LEU A   1      -9.673 -10.773  15.576  0.00  0.00    +0.133 C 
ENDROOT
BRANCH   1   2
ATOM      2  N   LEU A   1      -9.987  -9.477  16.219  0.00  0.00    -0.239 NA
ATOM      3  H   LEU A   1     -10.193  -8.672  15.593  0.00  0.00    +0.142 HD
ENDBRANCH   1   2
BRANCH   1   4
ATOM      4  C   LEU A   1     -10.667 -11.842  15.929  0.00  0.00    +0.224 C 
ATOM      5  O   LEU A   1     -10.351 -13.051  15.698  0.00  0.00    -0.287 OA
ENDBRANCH   1   4
BRANCH   1   6
ATOM      6  CB  LEU A   1      -8.183 -11.209  15.824  0.00  0.00    +0.025 C 
BRANCH   6   7
ATOM      7  CG  LEU A   1      -7.123 -10.146  15.315  0.00  0.00    +0.002 C 
ATOM      8  CD2 LEU A   1      -5.682 -10.670  15.495  0.00  0.00    +0.000 C 
ATOM      9  CD1 LEU A   1      -7.365  -9.900  13.796  0.00  0.00    +0.000 C 
ENDBRANCH   6   7
ENDBRANCH   1   6
TORSDOF 4
REMARK  Name = ../refined-set-2016/4abf/4abf_pocket.pdb
REMARK  137 active torsions:
REMARK  status: ('A' for Active; 'I' for Inactive)
REMARK    1  A    between atoms: _1  and  _3
REMARK    2  A    between atoms: _3  and  _4
REMARK    3  A    between atoms: _3  and  _6
REMARK    4  A    between atoms: _9  and  _11
REMARK    5  A    between atoms: _11  and  _12
REMARK    6  A    between atoms: _11  and  _14
REMARK    7  A    between atoms: _14  and  _15
REMARK    8  A    between atoms: _20  and  _22
REMARK    9  A    between atoms: _22  and  _23
REMARK   10  A    between atoms: _22  and  _25
REMARK   11  A    between atoms: _25  and  _26
REMARK   12  A    between atoms: _29  and  _31
REMARK   13  A    between atoms: _31  and  _32
REMARK   14  A    between atoms: _31  and  _34
REMARK   15  A    between atoms: _34  and  _35
REMARK   16  A    between atoms: _38  and  _40
REMARK   17  A    between atoms: _40  and  _41
REMARK   18  A    between atoms: _40  and  _43
REMARK   19  A    between atoms: _43  and  _44
REMARK   20  A    between atoms: _47  and  _49
REMARK   21  A    between atoms: _49  and  _50
REMARK   22  A    between atoms: _49  and  _52
REMARK   23  A    between atoms: _52  and  _53
REMARK   24  A    between atoms: _58  and  _60
REMARK   25  A    between atoms: _60  and  _61
REMARK   26  A    between atoms: _60  and  _63
REMARK   27  A    between atoms: _63  and  _64
REMARK   28  A    between atoms: _64  and  _65
REMARK   29  A    between atoms: _65  and  _66
REMARK   30  A    between atoms: _66  and  _67
REMARK   31  A    between atoms: _71  and  _73
REMARK   32  A    between atoms: _73  and  _74
REMARK   33  A    between atoms: _73  and  _76
REMARK   34  A    between atoms: _76  and  _77
REMARK   35  A    between atoms: _79  and  _81
REMARK   36  A    between atoms: _81  and  _82
REMARK   37  A    between atoms: _81  and  _84
REMARK   38  A    between atoms: _84  and  _85
REMARK   39  A    between atoms: _90  and  _91
REMARK   40  A    between atoms: _93  and  _95
REMARK   41  A    between atoms: _95  and  _96
REMARK   42  A    between atoms: _95  and  _98
REMARK   43  A    between atoms: _98  and  _99
REMARK   44  A    between atoms: _104  and  _105
REMARK   45  A    between atoms: _107  and  _109
REMARK   46  A    between atoms: _109  and  _110
REMARK   47  A    between atoms: _113  and  _115
REMARK   48  A    between atoms: _115  and  _116
REMARK   49  A    between atoms: _115  and  _118
REMARK   50  A    between atoms: _118  and  _119
REMARK   51  A    between atoms: _119  and  _120
REMARK   52  A    between atoms: _120  and  _121
REMARK   53  A    between atoms: _121  and  _122
REMARK   54  A    between atoms: _126  and  _128
REMARK   55  A    between atoms: _128  and  _129
REMARK   56  A    between atoms: _128  and  _131
REMARK   57  A    between atoms: _131  and  _132
REMARK   58  A    between atoms: _135  and  _137
REMARK   59  A    between atoms: _137  and  _138
REMARK   60  A    between atoms: _137  and  _140
REMARK   61  A    between atoms: _140  and  _141
REMARK   62  A    between atoms: _143  and  _145
REMARK   63  A    between atoms: _145  and  _146
REMARK   64  A    between atoms: _145  and  _148
REMARK   65  A    between atoms: _148  and  _149
REMARK   66  A    between atoms: _149  and  _259
REMARK   67  A    between atoms: _150  and  _152
REMARK   68  A    between atoms: _152  and  _153
REMARK   69  A    between atoms: _152  and  _155
REMARK   70  A    between atoms: _155  and  _156
REMARK   71  A    between atoms: _156  and  _157
REMARK   72  A    between atoms: _162  and  _164
REMARK   73  A    between atoms: _164  and  _165
REMARK   74  A    between atoms: _167  and  _169
REMARK   75  A    between atoms: _169  and  _170
REMARK   76  A    between atoms: _169  and  _172
REMARK   77  A    between atoms: _172  and  _173
REMARK   78  A    between atoms: _176  and  _178
REMARK   79  A    between atoms: _178  and  _179
REMARK   80  A    between atoms: _178  and  _181
REMARK   81  A    between atoms: _181  and  _182
REMARK   82  A    between atoms: _184  and  _186
REMARK   83  A    between atoms: _186  and  _187
REMARK   84  A    between atoms: _189  and  _191
REMARK   85  A    between atoms: _191  and  _192
REMARK   86  A    between atoms: _194  and  _196
REMARK   87  A    between atoms: _196  and  _197
REMARK   88  A    between atoms: _196  and  _199
REMARK   89  A    between atoms: _199  and  _200
REMARK   90  A    between atoms: _203  and  _205
REMARK   91  A    between atoms: _205  and  _206
REMARK   92  A    between atoms: _205  and  _208
REMARK   93  A    between atoms: _211  and  _213
REMARK   94  A    between atoms: _213  and  _214
REMARK   95  A    between atoms: _213  and  _216
REMARK   96  A    between atoms: _216  and  _217
REMARK   97  A    between atoms: _219  and  _221
REMARK   98  A    between atoms: _221  and  _222
REMARK   99  A    between atoms: _221  and  _224
REMARK  100  A    between atoms: _224  and  _225
REMARK  101  A    between atoms: _235  and  _237
REMARK  102  A    between atoms: _237  and  _238
REMARK  103  A    between atoms: _240  and  _242
REMARK  104  A    between atoms: _242  and  _243
REMARK  105  A    between atoms: _242  and  _245
REMARK  106  A    between atoms: _245  and  _246
REMARK  107  A    between atoms: _248  and  _250
REMARK  108  A    between atoms: _250  and  _251
REMARK  109  A    between atoms: _253  and  _255
REMARK  110  A    between atoms: _255  and  _256
REMARK  111  A    between atoms: _255  and  _258
REMARK  112  A    between atoms: _258  and  _259
REMARK  113  A    between atoms: _260  and  _262
REMARK  114  A    between atoms: _262  and  _263
REMARK  115  A    between atoms: _266  and  _268
REMARK  116  A    between atoms: _268  and  _269
REMARK  117  A    between atoms: _268  and  _271
REMARK  118  A    between atoms: _271  and  _272
REMARK  119  A    between atoms: _272  and  _273
REMARK  120  A    between atoms: _278  and  _280
REMARK  121  A    between atoms: _280  and  _281
REMARK  122  A    between atoms: _280  and  _283
REMARK  123  A    between atoms: _283  and  _284
REMARK  124  A    between atoms: _284  and  _285
REMARK  125  A    between atoms: _285  and  _286
REMARK  126  A    between atoms: _286  and  _287
REMARK  127  A    between atoms: _292  and  _293
REMARK  128  A    between atoms: _298  and  _300
REMARK  129  A    between atoms: _300  and  _301
REMARK  130  A    between atoms: _303  and  _305
REMARK  131  A    between atoms: _305  and  _306
REMARK  132  A    between atoms: _305  and  _308
REMARK  133  A    between atoms: _311  and  _313
REMARK  134  A    between atoms: _313  and  _314
REMARK  135  A    between atoms: _313  and  _316
REMARK  136  A    between atoms: _316  and  _317
REMARK  137  A    between atoms: _322  and  _323
REMARK                            x       y       z     vdW  Elec       q    Type
REMARK                         _______ _______ _______ _____ _____    ______ ____
ROOT
ATOM      1  CA  ASP A   1     -10.277 -15.005  12.260  0.00  0.00    +0.144 C 
ENDROOT
BRANCH   1   2
ATOM      2  N   ASP A   1     -11.419 -15.192  13.170  0.00  0.00    -0.239 NA
ATOM      3  H   ASP A   1     -11.249 -15.525  14.140  0.00  0.00    +0.142 HD
ENDBRANCH   1   2
BRANCH   1   4
ATOM      4  C   ASP A   1     -10.096 -16.218  11.385  0.00  0.00    +0.225 C 
ATOM      5  O   ASP A   1      -9.173 -17.058  11.577  0.00  0.00    -0.287 OA
ENDBRANCH   1   4
BRANCH   1   6
ATOM      6  CB  ASP A   1      -8.994 -14.685  13.078  0.00  0.00    +0.139 C 
BRANCH   6   7
ATOM      7  CG  ASP A   1      -7.843 -14.211  12.207  0.00  0.00    +0.367 C 
ATOM      8  OD2 ASP A   1      -6.691 -14.149  12.748  0.00  0.00    -0.246 OA
ATOM      9  OD1 ASP A   1      -8.071 -13.930  11.002  0.00  0.00    -0.246 OA
ENDBRANCH   6   7
ENDBRANCH   1   6
TORSDOF 4
REMARK  Name = ../refined-set-2016/4abf/4abf_pocket.pdb
REMARK  137 active torsions:
REMARK  status: ('A' for Active; 'I' for Inactive)
REMARK    1  A    between atoms: _1  and  _3
REMARK    2  A    between atoms: _3  and  _4
REMARK    3  A    between atoms: _3  and  _6
REMARK    4  A    between atoms: _9  and  _11
REMARK    5  A    between atoms: _11  and  _12
REMARK    6  A    between atoms: _11  and  _14
REMARK    7  A    between atoms: _14  and  _15
REMARK    8  A    between atoms: _20  and  _22
REMARK    9  A    between atoms: _22  and  _23
REMARK   10  A    between atoms: _22  and  _25
REMARK   11  A    between atoms: _25  and  _26
REMARK   12  A    between atoms: _29  and  _31
REMARK   13  A    between atoms: _31  and  _32
REMARK   14  A    between atoms: _31  and  _34
REMARK   15  A    between atoms: _34  and  _35
REMARK   16  A    between atoms: _38  and  _40
REMARK   17  A    between atoms: _40  and  _41
REMARK   18  A    between atoms: _40  and  _43
REMARK   19  A    between atoms: _43  and  _44
REMARK   20  A    between atoms: _47  and  _49
REMARK   21  A    between atoms: _49  and  _50
REMARK   22  A    between atoms: _49  and  _52
REMARK   23  A    between atoms: _52  and  _53
REMARK   24  A    between atoms: _58  and  _60
REMARK   25  A    between atoms: _60  and  _61
REMARK   26  A    between atoms: _60  and  _63
REMARK   27  A    between atoms: _63  and  _64
REMARK   28  A    between atoms: _64  and  _65
REMARK   29  A    between atoms: _65  and  _66
REMARK   30  A    between atoms: _66  and  _67
REMARK   31  A    between atoms: _71  and  _73
REMARK   32  A    between atoms: _73  and  _74
REMARK   33  A    between atoms: _73  and  _76
REMARK   34  A    between atoms: _76  and  _77
REMARK   35  A    between atoms: _79  and  _81
REMARK   36  A    between atoms: _81  and  _82
REMARK   37  A    between atoms: _81  and  _84
REMARK   38  A    between atoms: _84  and  _85
REMARK   39  A    between atoms: _90  and  _91
REMARK   40  A    between atoms: _93  and  _95
REMARK   41  A    between atoms: _95  and  _96
REMARK   42  A    between atoms: _95  and  _98
REMARK   43  A    between atoms: _98  and  _99
REMARK   44  A    between atoms: _104  and  _105
REMARK   45  A    between atoms: _107  and  _109
REMARK   46  A    between atoms: _109  and  _110
REMARK   47  A    between atoms: _113  and  _115
REMARK   48  A    between atoms: _115  and  _116
REMARK   49  A    between atoms: _115  and  _118
REMARK   50  A    between atoms: _118  and  _119
REMARK   51  A    between atoms: _119  and  _120
REMARK   52  A    between atoms: _120  and  _121
REMARK   53  A    between atoms: _121  and  _122
REMARK   54  A    between atoms: _126  and  _128
REMARK   55  A    between atoms: _128  and  _129
REMARK   56  A    between atoms: _128  and  _131
REMARK   57  A    between atoms: _131  and  _132
REMARK   58  A    between atoms: _135  and  _137
REMARK   59  A    between atoms: _137  and  _138
REMARK   60  A    between atoms: _137  and  _140
REMARK   61  A    between atoms: _140  and  _141
REMARK   62  A    between atoms: _143  and  _145
REMARK   63  A    between atoms: _145  and  _146
REMARK   64  A    between atoms: _145  and  _148
REMARK   65  A    between atoms: _148  and  _149
REMARK   66  A    between atoms: _149  and  _259
REMARK   67  A    between atoms: _150  and  _152
REMARK   68  A    between atoms: _152  and  _153
REMARK   69  A    between atoms: _152  and  _155
REMARK   70  A    between atoms: _155  and  _156
REMARK   71  A    between atoms: _156  and  _157
REMARK   72  A    between atoms: _162  and  _164
REMARK   73  A    between atoms: _164  and  _165
REMARK   74  A    between atoms: _167  and  _169
REMARK   75  A    between atoms: _169  and  _170
REMARK   76  A    between atoms: _169  and  _172
REMARK   77  A    between atoms: _172  and  _173
REMARK   78  A    between atoms: _176  and  _178
REMARK   79  A    between atoms: _178  and  _179
REMARK   80  A    between atoms: _178  and  _181
REMARK   81  A    between atoms: _181  and  _182
REMARK   82  A    between atoms: _184  and  _186
REMARK   83  A    between atoms: _186  and  _187
REMARK   84  A    between atoms: _189  and  _191
REMARK   85  A    between atoms: _191  and  _192
REMARK   86  A    between atoms: _194  and  _196
REMARK   87  A    between atoms: _196  and  _197
REMARK   88  A    between atoms: _196  and  _199
REMARK   89  A    between atoms: _199  and  _200
REMARK   90  A    between atoms: _203  and  _205
REMARK   91  A    between atoms: _205  and  _206
REMARK   92  A    between atoms: _205  and  _208
REMARK   93  A    between atoms: _211  and  _213
REMARK   94  A    between atoms: _213  and  _214
REMARK   95  A    between atoms: _213  and  _216
REMARK   96  A    between atoms: _216  and  _217
REMARK   97  A    between atoms: _219  and  _221
REMARK   98  A    between atoms: _221  and  _222
REMARK   99  A    between atoms: _221  and  _224
REMARK  100  A    between atoms: _224  and  _225
REMARK  101  A    between atoms: _235  and  _237
REMARK  102  A    between atoms: _237  and  _238
REMARK  103  A    between atoms: _240  and  _242
REMARK  104  A    between atoms: _242  and  _243
REMARK  105  A    between atoms: _242  and  _245
REMARK  106  A    between atoms: _245  and  _246
REMARK  107  A    between atoms: _248  and  _250
REMARK  108  A    between atoms: _250  and  _251
REMARK  109  A    between atoms: _253  and  _255
REMARK  110  A    between atoms: _255  and  _256
REMARK  111  A    between atoms: _255  and  _258
REMARK  112  A    between atoms: _258  and  _259
REMARK  113  A    between atoms: _260  and  _262
REMARK  114  A    between atoms: _262  and  _263
REMARK  115  A    between atoms: _266  and  _268
REMARK  116  A    between atoms: _268  and  _269
REMARK  117  A    between atoms: _268  and  _271
REMARK  118  A    between atoms: _271  and  _272
REMARK  119  A    between atoms: _272  and  _273
REMARK  120  A    between atoms: _278  and  _280
REMARK  121  A    between atoms: _280  and  _281
REMARK  122  A    between atoms: _280  and  _283
REMARK  123  A    between atoms: _283  and  _284
REMARK  124  A    between atoms: _284  and  _285
REMARK  125  A    between atoms: _285  and  _286
REMARK  126  A    between atoms: _286  and  _287
REMARK  127  A    between atoms: _292  and  _293
REMARK  128  A    between atoms: _298  and  _300
REMARK  129  A    between atoms: _300  and  _301
REMARK  130  A    between atoms: _303  and  _305
REMARK  131  A    between atoms: _305  and  _306
REMARK  132  A    between atoms: _305  and  _308
REMARK  133  A    between atoms: _311  and  _313
REMARK  134  A    between atoms: _313  and  _314
REMARK  135  A    between atoms: _313  and  _316
REMARK  136  A    between atoms: _316  and  _317
REMARK  137  A    between atoms: _322  and  _323
REMARK                            x       y       z     vdW  Elec       q    Type
REMARK                         _______ _______ _______ _____ _____    ______ ____
ROOT
ATOM      1  CA  ILE A   1       2.016 -26.066  14.634  0.00  0.00    +0.133 C 
ENDROOT
BRANCH   1   2
ATOM      2  N   ILE A   1       2.165 -27.422  15.214  0.00  0.00    -0.239 NA
ATOM      3  H   ILE A   1       2.997 -27.621  15.805  0.00  0.00    +0.142 HD
ENDBRANCH   1   2
BRANCH   1   4
ATOM      4  CB  ILE A   1       2.070 -25.025  15.745  0.00  0.00    +0.023 C 
ATOM      5  CG2 ILE A   1       1.736 -23.626  15.190  0.00  0.00    +0.002 C 
BRANCH   4   6
ATOM      6  CG1 ILE A   1       1.051 -25.373  16.882  0.00  0.00    +0.002 C 
ATOM      7  CD1 ILE A   1       1.023 -24.456  18.054  0.00  0.00    +0.000 C 
ENDBRANCH   4   6
ENDBRANCH   1   4
BRANCH   1   8
ATOM      8  C   ILE A   1       3.132 -25.872  13.690  0.00  0.00    +0.224 C 
ATOM      9  O   ILE A   1       4.284 -26.261  13.972  0.00  0.00    -0.287 OA
ENDBRANCH   1   8
TORSDOF 4
REMARK  Name = ../refined-set-2016/4abf/4abf_pocket.pdb
REMARK  137 active torsions:
REMARK  status: ('A' for Active; 'I' for Inactive)
REMARK    1  A    between atoms: _1  and  _3
REMARK    2  A    between atoms: _3  and  _4
REMARK    3  A    between atoms: _3  and  _6
REMARK    4  A    between atoms: _9  and  _11
REMARK    5  A    between atoms: _11  and  _12
REMARK    6  A    between atoms: _11  and  _14
REMARK    7  A    between atoms: _14  and  _15
REMARK    8  A    between atoms: _20  and  _22
REMARK    9  A    between atoms: _22  and  _23
REMARK   10  A    between atoms: _22  and  _25
REMARK   11  A    between atoms: _25  and  _26
REMARK   12  A    between atoms: _29  and  _31
REMARK   13  A    between atoms: _31  and  _32
REMARK   14  A    between atoms: _31  and  _34
REMARK   15  A    between atoms: _34  and  _35
REMARK   16  A    between atoms: _38  and  _40
REMARK   17  A    between atoms: _40  and  _41
REMARK   18  A    between atoms: _40  and  _43
REMARK   19  A    between atoms: _43  and  _44
REMARK   20  A    between atoms: _47  and  _49
REMARK   21  A    between atoms: _49  and  _50
REMARK   22  A    between atoms: _49  and  _52
REMARK   23  A    between atoms: _52  and  _53
REMARK   24  A    between atoms: _58  and  _60
REMARK   25  A    between atoms: _60  and  _61
REMARK   26  A    between atoms: _60  and  _63
REMARK   27  A    between atoms: _63  and  _64
REMARK   28  A    between atoms: _64  and  _65
REMARK   29  A    between atoms: _65  and  _66
REMARK   30  A    between atoms: _66  and  _67
REMARK   31  A    between atoms: _71  and  _73
REMARK   32  A    between atoms: _73  and  _74
REMARK   33  A    between atoms: _73  and  _76
REMARK   34  A    between atoms: _76  and  _77
REMARK   35  A    between atoms: _79  and  _81
REMARK   36  A    between atoms: _81  and  _82
REMARK   37  A    between atoms: _81  and  _84
REMARK   38  A    between atoms: _84  and  _85
REMARK   39  A    between atoms: _90  and  _91
REMARK   40  A    between atoms: _93  and  _95
REMARK   41  A    between atoms: _95  and  _96
REMARK   42  A    between atoms: _95  and  _98
REMARK   43  A    between atoms: _98  and  _99
REMARK   44  A    between atoms: _104  and  _105
REMARK   45  A    between atoms: _107  and  _109
REMARK   46  A    between atoms: _109  and  _110
REMARK   47  A    between atoms: _113  and  _115
REMARK   48  A    between atoms: _115  and  _116
REMARK   49  A    between atoms: _115  and  _118
REMARK   50  A    between atoms: _118  and  _119
REMARK   51  A    between atoms: _119  and  _120
REMARK   52  A    between atoms: _120  and  _121
REMARK   53  A    between atoms: _121  and  _122
REMARK   54  A    between atoms: _126  and  _128
REMARK   55  A    between atoms: _128  and  _129
REMARK   56  A    between atoms: _128  and  _131
REMARK   57  A    between atoms: _131  and  _132
REMARK   58  A    between atoms: _135  and  _137
REMARK   59  A    between atoms: _137  and  _138
REMARK   60  A    between atoms: _137  and  _140
REMARK   61  A    between atoms: _140  and  _141
REMARK   62  A    between atoms: _143  and  _145
REMARK   63  A    between atoms: _145  and  _146
REMARK   64  A    between atoms: _145  and  _148
REMARK   65  A    between atoms: _148  and  _149
REMARK   66  A    between atoms: _149  and  _259
REMARK   67  A    between atoms: _150  and  _152
REMARK   68  A    between atoms: _152  and  _153
REMARK   69  A    between atoms: _152  and  _155
REMARK   70  A    between atoms: _155  and  _156
REMARK   71  A    between atoms: _156  and  _157
REMARK   72  A    between atoms: _162  and  _164
REMARK   73  A    between atoms: _164  and  _165
REMARK   74  A    between atoms: _167  and  _169
REMARK   75  A    between atoms: _169  and  _170
REMARK   76  A    between atoms: _169  and  _172
REMARK   77  A    between atoms: _172  and  _173
REMARK   78  A    between atoms: _176  and  _178
REMARK   79  A    between atoms: _178  and  _179
REMARK   80  A    between atoms: _178  and  _181
REMARK   81  A    between atoms: _181  and  _182
REMARK   82  A    between atoms: _184  and  _186
REMARK   83  A    between atoms: _186  and  _187
REMARK   84  A    between atoms: _189  and  _191
REMARK   85  A    between atoms: _191  and  _192
REMARK   86  A    between atoms: _194  and  _196
REMARK   87  A    between atoms: _196  and  _197
REMARK   88  A    between atoms: _196  and  _199
REMARK   89  A    between atoms: _199  and  _200
REMARK   90  A    between atoms: _203  and  _205
REMARK   91  A    between atoms: _205  and  _206
REMARK   92  A    between atoms: _205  and  _208
REMARK   93  A    between atoms: _211  and  _213
REMARK   94  A    between atoms: _213  and  _214
REMARK   95  A    between atoms: _213  and  _216
REMARK   96  A    between atoms: _216  and  _217
REMARK   97  A    between atoms: _219  and  _221
REMARK   98  A    between atoms: _221  and  _222
REMARK   99  A    between atoms: _221  and  _224
REMARK  100  A    between atoms: _224  and  _225
REMARK  101  A    between atoms: _235  and  _237
REMARK  102  A    between atoms: _237  and  _238
REMARK  103  A    between atoms: _240  and  _242
REMARK  104  A    between atoms: _242  and  _243
REMARK  105  A    between atoms: _242  and  _245
REMARK  106  A    between atoms: _245  and  _246
REMARK  107  A    between atoms: _248  and  _250
REMARK  108  A    between atoms: _250  and  _251
REMARK  109  A    between atoms: _253  and  _255
REMARK  110  A    between atoms: _255  and  _256
REMARK  111  A    between atoms: _255  and  _258
REMARK  112  A    between atoms: _258  and  _259
REMARK  113  A    between atoms: _260  and  _262
REMARK  114  A    between atoms: _262  and  _263
REMARK  115  A    between atoms: _266  and  _268
REMARK  116  A    between atoms: _268  and  _269
REMARK  117  A    between atoms: _268  and  _271
REMARK  118  A    between atoms: _271  and  _272
REMARK  119  A    between atoms: _272  and  _273
REMARK  120  A    between atoms: _278  and  _280
REMARK  121  A    between atoms: _280  and  _281
REMARK  122  A    between atoms: _280  and  _283
REMARK  123  A    between atoms: _283  and  _284
REMARK  124  A    between atoms: _284  and  _285
REMARK  125  A    between atoms: _285  and  _286
REMARK  126  A    between atoms: _286  and  _287
REMARK  127  A    between atoms: _292  and  _293
REMARK  128  A    between atoms: _298  and  _300
REMARK  129  A    between atoms: _300  and  _301
REMARK  130  A    between atoms: _303  and  _305
REMARK  131  A    between atoms: _305  and  _306
REMARK  132  A    between atoms: _305  and  _308
REMARK  133  A    between atoms: _311  and  _313
REMARK  134  A    between atoms: _313  and  _314
REMARK  135  A    between atoms: _313  and  _316
REMARK  136  A    between atoms: _316  and  _317
REMARK  137  A    between atoms: _322  and  _323
REMARK                            x       y       z     vdW  Elec       q    Type
REMARK                         _______ _______ _______ _____ _____    ______ ____
ROOT
ATOM      1  CB  ASN A   1       9.813 -14.283  12.748  0.00  0.00    +0.110 C 
ENDROOT
BRANCH   1   2
ATOM      2  CG  ASN A   1      11.010 -13.575  13.344  0.00  0.00    +0.221 C 
ATOM      3  ND2 ASN A   1      10.716 -12.382  13.903  0.00  0.00    -0.329 N 
ATOM      4 HD21 ASN A   1      11.467 -11.819  14.351  0.00  0.00    +0.145 HD
ATOM      5 HD22 ASN A   1       9.739 -12.026  13.885  0.00  0.00    +0.145 HD
ATOM      6  OD1 ASN A   1      12.143 -14.052  13.331  0.00  0.00    -0.275 OA
ENDBRANCH   1   2
BRANCH   1   7
ATOM      7  CA  ASN A   1      10.125 -15.679  12.102  0.00  0.00    +0.142 C 
BRANCH   7   8
ATOM      8  N   ASN A   1       8.919 -16.063  11.349  0.00  0.00    -0.239 NA
ATOM      9  H   ASN A   1       8.133 -15.384  11.291  0.00  0.00    +0.142 HD
ENDBRANCH   7   8
BRANCH   7  10
ATOM     10  C   ASN A   1      10.492 -16.750  13.123  0.00  0.00    +0.225 C 
ATOM     11  O   ASN A   1       9.611 -17.243  13.836  0.00  0.00    -0.287 OA
ENDBRANCH   7  10
ENDBRANCH   1   7
TORSDOF 4
REMARK  Name = ../refined-set-2016/4abf/4abf_pocket.pdb
REMARK  137 active torsions:
REMARK  status: ('A' for Active; 'I' for Inactive)
REMARK    1  A    between atoms: _1  and  _3
REMARK    2  A    between atoms: _3  and  _4
REMARK    3  A    between atoms: _3  and  _6
REMARK    4  A    between atoms: _9  and  _11
REMARK    5  A    between atoms: _11  and  _12
REMARK    6  A    between atoms: _11  and  _14
REMARK    7  A    between atoms: _14  and  _15
REMARK    8  A    between atoms: _20  and  _22
REMARK    9  A    between atoms: _22  and  _23
REMARK   10  A    between atoms: _22  and  _25
REMARK   11  A    between atoms: _25  and  _26
REMARK   12  A    between atoms: _29  and  _31
REMARK   13  A    between atoms: _31  and  _32
REMARK   14  A    between atoms: _31  and  _34
REMARK   15  A    between atoms: _34  and  _35
REMARK   16  A    between atoms: _38  and  _40
REMARK   17  A    between atoms: _40  and  _41
REMARK   18  A    between atoms: _40  and  _43
REMARK   19  A    between atoms: _43  and  _44
REMARK   20  A    between atoms: _47  and  _49
REMARK   21  A    between atoms: _49  and  _50
REMARK   22  A    between atoms: _49  and  _52
REMARK   23  A    between atoms: _52  and  _53
REMARK   24  A    between atoms: _58  and  _60
REMARK   25  A    between atoms: _60  and  _61
REMARK   26  A    between atoms: _60  and  _63
REMARK   27  A    between atoms: _63  and  _64
REMARK   28  A    between atoms: _64  and  _65
REMARK   29  A    between atoms: _65  and  _66
REMARK   30  A    between atoms: _66  and  _67
REMARK   31  A    between atoms: _71  and  _73
REMARK   32  A    between atoms: _73  and  _74
REMARK   33  A    between atoms: _73  and  _76
REMARK   34  A    between atoms: _76  and  _77
REMARK   35  A    between atoms: _79  and  _81
REMARK   36  A    between atoms: _81  and  _82
REMARK   37  A    between atoms: _81  and  _84
REMARK   38  A    between atoms: _84  and  _85
REMARK   39  A    between atoms: _90  and  _91
REMARK   40  A    between atoms: _93  and  _95
REMARK   41  A    between atoms: _95  and  _96
REMARK   42  A    between atoms: _95  and  _98
REMARK   43  A    between atoms: _98  and  _99
REMARK   44  A    between atoms: _104  and  _105
REMARK   45  A    between atoms: _107  and  _109
REMARK   46  A    between atoms: _109  and  _110
REMARK   47  A    between atoms: _113  and  _115
REMARK   48  A    between atoms: _115  and  _116
REMARK   49  A    between atoms: _115  and  _118
REMARK   50  A    between atoms: _118  and  _119
REMARK   51  A    between atoms: _119  and  _120
REMARK   52  A    between atoms: _120  and  _121
REMARK   53  A    between atoms: _121  and  _122
REMARK   54  A    between atoms: _126  and  _128
REMARK   55  A    between atoms: _128  and  _129
REMARK   56  A    between atoms: _128  and  _131
REMARK   57  A    between atoms: _131  and  _132
REMARK   58  A    between atoms: _135  and  _137
REMARK   59  A    between atoms: _137  and  _138
REMARK   60  A    between atoms: _137  and  _140
REMARK   61  A    between atoms: _140  and  _141
REMARK   62  A    between atoms: _143  and  _145
REMARK   63  A    between atoms: _145  and  _146
REMARK   64  A    between atoms: _145  and  _148
REMARK   65  A    between atoms: _148  and  _149
REMARK   66  A    between atoms: _149  and  _259
REMARK   67  A    between atoms: _150  and  _152
REMARK   68  A    between atoms: _152  and  _153
REMARK   69  A    between atoms: _152  and  _155
REMARK   70  A    between atoms: _155  and  _156
REMARK   71  A    between atoms: _156  and  _157
REMARK   72  A    between atoms: _162  and  _164
REMARK   73  A    between atoms: _164  and  _165
REMARK   74  A    between atoms: _167  and  _169
REMARK   75  A    between atoms: _169  and  _170
REMARK   76  A    between atoms: _169  and  _172
REMARK   77  A    between atoms: _172  and  _173
REMARK   78  A    between atoms: _176  and  _178
REMARK   79  A    between atoms: _178  and  _179
REMARK   80  A    between atoms: _178  and  _181
REMARK   81  A    between atoms: _181  and  _182
REMARK   82  A    between atoms: _184  and  _186
REMARK   83  A    between atoms: _186  and  _187
REMARK   84  A    between atoms: _189  and  _191
REMARK   85  A    between atoms: _191  and  _192
REMARK   86  A    between atoms: _194  and  _196
REMARK   87  A    between atoms: _196  and  _197
REMARK   88  A    between atoms: _196  and  _199
REMARK   89  A    between atoms: _199  and  _200
REMARK   90  A    between atoms: _203  and  _205
REMARK   91  A    between atoms: _205  and  _206
REMARK   92  A    between atoms: _205  and  _208
REMARK   93  A    between atoms: _211  and  _213
REMARK   94  A    between atoms: _213  and  _214
REMARK   95  A    between atoms: _213  and  _216
REMARK   96  A    between atoms: _216  and  _217
REMARK   97  A    between atoms: _219  and  _221
REMARK   98  A    between atoms: _221  and  _222
REMARK   99  A    between atoms: _221  and  _224
REMARK  100  A    between atoms: _224  and  _225
REMARK  101  A    between atoms: _235  and  _237
REMARK  102  A    between atoms: _237  and  _238
REMARK  103  A    between atoms: _240  and  _242
REMARK  104  A    between atoms: _242  and  _243
REMARK  105  A    between atoms: _242  and  _245
REMARK  106  A    between atoms: _245  and  _246
REMARK  107  A    between atoms: _248  and  _250
REMARK  108  A    between atoms: _250  and  _251
REMARK  109  A    between atoms: _253  and  _255
REMARK  110  A    between atoms: _255  and  _256
REMARK  111  A    between atoms: _255  and  _258
REMARK  112  A    between atoms: _258  and  _259
REMARK  113  A    between atoms: _260  and  _262
REMARK  114  A    between atoms: _262  and  _263
REMARK  115  A    between atoms: _266  and  _268
REMARK  116  A    between atoms: _268  and  _269
REMARK  117  A    between atoms: _268  and  _271
REMARK  118  A    between atoms: _271  and  _272
REMARK  119  A    between atoms: _272  and  _273
REMARK  120  A    between atoms: _278  and  _280
REMARK  121  A    between atoms: _280  and  _281
REMARK  122  A    between atoms: _280  and  _283
REMARK  123  A    between atoms: _283  and  _284
REMARK  124  A    between atoms: _284  and  _285
REMARK  125  A    between atoms: _285  and  _286
REMARK  126  A    between atoms: _286  and  _287
REMARK  127  A    between atoms: _292  and  _293
REMARK  128  A    between atoms: _298  and  _300
REMARK  129  A    between atoms: _300  and  _301
REMARK  130  A    between atoms: _303  and  _305
REMARK  131  A    between atoms: _305  and  _306
REMARK  132  A    between atoms: _305  and  _308
REMARK  133  A    between atoms: _311  and  _313
REMARK  134  A    between atoms: _313  and  _314
REMARK  135  A    between atoms: _313  and  _316
REMARK  136  A    between atoms: _316  and  _317
REMARK  137  A    between atoms: _322  and  _323
REMARK                            x       y       z     vdW  Elec       q    Type
REMARK                         _______ _______ _______ _____ _____    ______ ____
ROOT
ATOM      1  CA  LYS A   1      13.554 -15.296  16.705  0.00  0.00    +0.145 C 
ENDROOT
BRANCH   1   2
ATOM      2  C   LYS A   1      12.492 -14.472  17.475  0.00  0.00    +0.238 C 
ATOM      3  N   SER A   2      12.583 -14.515  18.820  0.00  0.00    -0.296 N 
ATOM      4  H   SER A   2      13.348 -15.071  19.254  0.00  0.00    +0.150 HD
ATOM      5  O   LYS A   1      11.614 -13.815  16.880  0.00  0.00    -0.274 OA
BRANCH   3   6
ATOM      6  CA  SER A   2      11.617 -13.787  19.714  0.00  0.00    +0.166 C 
BRANCH   6   7
ATOM      7  CB  SER A   2      12.017 -12.326  19.922  0.00  0.00    +0.229 C 
ATOM      8  OG  SER A   2      11.187 -11.516  20.354  0.00  0.00    -0.286 OA
ENDBRANCH   6   7
BRANCH   6   9
ATOM      9  C   SER A   2      11.524 -14.522  21.031  0.00  0.00    +0.165 C 
BRANCH   9  10
ATOM     10  O   SER A   2      12.766 -14.762  21.664  0.00  0.00    -0.380 OA
ATOM     11  H   SER A   2      12.614 -15.245  22.515  0.00  0.00    +0.211 HD
ENDBRANCH   9  10
ENDBRANCH   6   9
ENDBRANCH   3   6
ENDBRANCH   1   2
BRANCH   1  12
ATOM     12  N   LYS A   1      13.028 -15.937  15.473  0.00  0.00    -0.238 NA
ATOM     13  H   LYS A   1      12.704 -15.359  14.672  0.00  0.00    +0.142 HD
ENDBRANCH   1  12
BRANCH   1  14
ATOM     14  CB  LYS A   1      14.723 -14.391  16.339  0.00  0.00    +0.026 C 
BRANCH  14  15
ATOM     15  CG  LYS A   1      15.929 -15.002  15.622  0.00  0.00    -0.000 C 
BRANCH  15  16
ATOM     16  CD  LYS A   1      16.996 -13.929  15.374  0.00  0.00    -0.024 C 
BRANCH  16  17
ATOM     17  CE  LYS A   1      18.313 -14.580  14.946  0.00  0.00    -0.086 C 
BRANCH  17  18
ATOM     18  NZ  LYS A   1      18.809 -15.576  15.947  0.00  0.00    +0.380 N 
ATOM     19  HZ1 LYS A   1      18.966 -15.101  16.859  0.00  0.00    -0.089 HD
ATOM     20  HZ2 LYS A   1      18.101 -16.329  16.065  0.00  0.00    -0.089 HD
ATOM     21  HZ3 LYS A   1      19.703 -15.988  15.611  0.00  0.00    -0.089 HD
ENDBRANCH  17  18
ENDBRANCH  16  17
ENDBRANCH  15  16
ENDBRANCH  14  15
ENDBRANCH   1  14
TORSDOF 11
REMARK  Name = ../refined-set-2016/4abf/4abf_pocket.pdb
REMARK  137 active torsions:
REMARK  status: ('A' for Active; 'I' for Inactive)
REMARK    1  A    between atoms: _1  and  _3
REMARK    2  A    between atoms: _3  and  _4
REMARK    3  A    between atoms: _3  and  _6
REMARK    4  A    between atoms: _9  and  _11
REMARK    5  A    between atoms: _11  and  _12
REMARK    6  A    between atoms: _11  and  _14
REMARK    7  A    between atoms: _14  and  _15
REMARK    8  A    between atoms: _20  and  _22
REMARK    9  A    between atoms: _22  and  _23
REMARK   10  A    between atoms: _22  and  _25
REMARK   11  A    between atoms: _25  and  _26
REMARK   12  A    between atoms: _29  and  _31
REMARK   13  A    between atoms: _31  and  _32
REMARK   14  A    between atoms: _31  and  _34
REMARK   15  A    between atoms: _34  and  _35
REMARK   16  A    between atoms: _38  and  _40
REMARK   17  A    between atoms: _40  and  _41
REMARK   18  A    between atoms: _40  and  _43
REMARK   19  A    between atoms: _43  and  _44
REMARK   20  A    between atoms: _47  and  _49
REMARK   21  A    between atoms: _49  and  _50
REMARK   22  A    between atoms: _49  and  _52
REMARK   23  A    between atoms: _52  and  _53
REMARK   24  A    between atoms: _58  and  _60
REMARK   25  A    between atoms: _60  and  _61
REMARK   26  A    between atoms: _60  and  _63
REMARK   27  A    between atoms: _63  and  _64
REMARK   28  A    between atoms: _64  and  _65
REMARK   29  A    between atoms: _65  and  _66
REMARK   30  A    between atoms: _66  and  _67
REMARK   31  A    between atoms: _71  and  _73
REMARK   32  A    between atoms: _73  and  _74
REMARK   33  A    between atoms: _73  and  _76
REMARK   34  A    between atoms: _76  and  _77
REMARK   35  A    between atoms: _79  and  _81
REMARK   36  A    between atoms: _81  and  _82
REMARK   37  A    between atoms: _81  and  _84
REMARK   38  A    between atoms: _84  and  _85
REMARK   39  A    between atoms: _90  and  _91
REMARK   40  A    between atoms: _93  and  _95
REMARK   41  A    between atoms: _95  and  _96
REMARK   42  A    between atoms: _95  and  _98
REMARK   43  A    between atoms: _98  and  _99
REMARK   44  A    between atoms: _104  and  _105
REMARK   45  A    between atoms: _107  and  _109
REMARK   46  A    between atoms: _109  and  _110
REMARK   47  A    between atoms: _113  and  _115
REMARK   48  A    between atoms: _115  and  _116
REMARK   49  A    between atoms: _115  and  _118
REMARK   50  A    between atoms: _118  and  _119
REMARK   51  A    between atoms: _119  and  _120
REMARK   52  A    between atoms: _120  and  _121
REMARK   53  A    between atoms: _121  and  _122
REMARK   54  A    between atoms: _126  and  _128
REMARK   55  A    between atoms: _128  and  _129
REMARK   56  A    between atoms: _128  and  _131
REMARK   57  A    between atoms: _131  and  _132
REMARK   58  A    between atoms: _135  and  _137
REMARK   59  A    between atoms: _137  and  _138
REMARK   60  A    between atoms: _137  and  _140
REMARK   61  A    between atoms: _140  and  _141
REMARK   62  A    between atoms: _143  and  _145
REMARK   63  A    between atoms: _145  and  _146
REMARK   64  A    between atoms: _145  and  _148
REMARK   65  A    between atoms: _148  and  _149
REMARK   66  A    between atoms: _149  and  _259
REMARK   67  A    between atoms: _150  and  _152
REMARK   68  A    between atoms: _152  and  _153
REMARK   69  A    between atoms: _152  and  _155
REMARK   70  A    between atoms: _155  and  _156
REMARK   71  A    between atoms: _156  and  _157
REMARK   72  A    between atoms: _162  and  _164
REMARK   73  A    between atoms: _164  and  _165
REMARK   74  A    between atoms: _167  and  _169
REMARK   75  A    between atoms: _169  and  _170
REMARK   76  A    between atoms: _169  and  _172
REMARK   77  A    between atoms: _172  and  _173
REMARK   78  A    between atoms: _176  and  _178
REMARK   79  A    between atoms: _178  and  _179
REMARK   80  A    between atoms: _178  and  _181
REMARK   81  A    between atoms: _181  and  _182
REMARK   82  A    between atoms: _184  and  _186
REMARK   83  A    between atoms: _186  and  _187
REMARK   84  A    between atoms: _189  and  _191
REMARK   85  A    between atoms: _191  and  _192
REMARK   86  A    between atoms: _194  and  _196
REMARK   87  A    between atoms: _196  and  _197
REMARK   88  A    between atoms: _196  and  _199
REMARK   89  A    between atoms: _199  and  _200
REMARK   90  A    between atoms: _203  and  _205
REMARK   91  A    between atoms: _205  and  _206
REMARK   92  A    between atoms: _205  and  _208
REMARK   93  A    between atoms: _211  and  _213
REMARK   94  A    between atoms: _213  and  _214
REMARK   95  A    between atoms: _213  and  _216
REMARK   96  A    between atoms: _216  and  _217
REMARK   97  A    between atoms: _219  and  _221
REMARK   98  A    between atoms: _221  and  _222
REMARK   99  A    between atoms: _221  and  _224
REMARK  100  A    between atoms: _224  and  _225
REMARK  101  A    between atoms: _235  and  _237
REMARK  102  A    between atoms: _237  and  _238
REMARK  103  A    between atoms: _240  and  _242
REMARK  104  A    between atoms: _242  and  _243
REMARK  105  A    between atoms: _242  and  _245
REMARK  106  A    between atoms: _245  and  _246
REMARK  107  A    between atoms: _248  and  _250
REMARK  108  A    between atoms: _250  and  _251
REMARK  109  A    between atoms: _253  and  _255
REMARK  110  A    between atoms: _255  and  _256
REMARK  111  A    between atoms: _255  and  _258
REMARK  112  A    between atoms: _258  and  _259
REMARK  113  A    between atoms: _260  and  _262
REMARK  114  A    between atoms: _262  and  _263
REMARK  115  A    between atoms: _266  and  _268
REMARK  116  A    between atoms: _268  and  _269
REMARK  117  A    between atoms: _268  and  _271
REMARK  118  A    between atoms: _271  and  _272
REMARK  119  A    between atoms: _272  and  _273
REMARK  120  A    between atoms: _278  and  _280
REMARK  121  A    between atoms: _280  and  _281
REMARK  122  A    between atoms: _280  and  _283
REMARK  123  A    between atoms: _283  and  _284
REMARK  124  A    between atoms: _284  and  _285
REMARK  125  A    between atoms: _285  and  _286
REMARK  126  A    between atoms: _286  and  _287
REMARK  127  A    between atoms: _292  and  _293
REMARK  128  A    between atoms: _298  and  _300
REMARK  129  A    between atoms: _300  and  _301
REMARK  130  A    between atoms: _303  and  _305
REMARK  131  A    between atoms: _305  and  _306
REMARK  132  A    between atoms: _305  and  _308
REMARK  133  A    between atoms: _311  and  _313
REMARK  134  A    between atoms: _313  and  _314
REMARK  135  A    between atoms: _313  and  _316
REMARK  136  A    between atoms: _316  and  _317
REMARK  137  A    between atoms: _322  and  _323
REMARK                            x       y       z     vdW  Elec       q    Type
REMARK                         _______ _______ _______ _____ _____    ______ ____
ROOT
ATOM      1  CG  TYR A   1      11.351 -14.111   7.979  0.00  0.00    -0.020 A 
ATOM      2  CD2 TYR A   1      11.818 -12.901   8.434  0.00  0.00    -0.001 A 
ATOM      3  CE2 TYR A   1      10.959 -11.989   9.099  0.00  0.00    +0.036 A 
ATOM      4  CZ  TYR A   1       9.659 -12.365   9.370  0.00  0.00    +0.134 A 
ATOM      5  CE1 TYR A   1       9.191 -13.584   8.942  0.00  0.00    +0.036 A 
ATOM      6  CD1 TYR A   1      10.034 -14.501   8.350  0.00  0.00    -0.001 A 
ENDROOT
BRANCH   4   7
ATOM      7  OH  TYR A   1       8.836 -11.455  10.070  0.00  0.00    -0.506 OA
ATOM      8  HH  TYR A   1       7.938 -11.852  10.194  0.00  0.00    +0.292 HD
ENDBRANCH   4   7
BRANCH   1   9
ATOM      9  CB  TYR A   1      12.254 -15.107   7.316  0.00  0.00    +0.051 C 
BRANCH   9  10
ATOM     10  CA  TYR A   1      13.006 -16.018   8.341  0.00  0.00    +0.137 C 
BRANCH  10  11
ATOM     11  N   TYR A   1      14.072 -15.262   9.003  0.00  0.00    -0.239 NA
ATOM     12  H   TYR A   1      14.742 -14.719   8.422  0.00  0.00    +0.142 HD
ENDBRANCH  10  11
BRANCH  10  13
ATOM     13  C   TYR A   1      13.640 -17.198   7.718  0.00  0.00    +0.224 C 
ATOM     14  O   TYR A   1      14.657 -17.119   6.959  0.00  0.00    -0.287 OA
ENDBRANCH  10  13
ENDBRANCH   9  10
ENDBRANCH   1   9
TORSDOF 5
REMARK  Name = ../refined-set-2016/4abf/4abf_pocket.pdb
REMARK  137 active torsions:
REMARK  status: ('A' for Active; 'I' for Inactive)
REMARK    1  A    between atoms: _1  and  _3
REMARK    2  A    between atoms: _3  and  _4
REMARK    3  A    between atoms: _3  and  _6
REMARK    4  A    between atoms: _9  and  _11
REMARK    5  A    between atoms: _11  and  _12
REMARK    6  A    between atoms: _11  and  _14
REMARK    7  A    between atoms: _14  and  _15
REMARK    8  A    between atoms: _20  and  _22
REMARK    9  A    between atoms: _22  and  _23
REMARK   10  A    between atoms: _22  and  _25
REMARK   11  A    between atoms: _25  and  _26
REMARK   12  A    between atoms: _29  and  _31
REMARK   13  A    between atoms: _31  and  _32
REMARK   14  A    between atoms: _31  and  _34
REMARK   15  A    between atoms: _34  and  _35
REMARK   16  A    between atoms: _38  and  _40
REMARK   17  A    between atoms: _40  and  _41
REMARK   18  A    between atoms: _40  and  _43
REMARK   19  A    between atoms: _43  and  _44
REMARK   20  A    between atoms: _47  and  _49
REMARK   21  A    between atoms: _49  and  _50
REMARK   22  A    between atoms: _49  and  _52
REMARK   23  A    between atoms: _52  and  _53
REMARK   24  A    between atoms: _58  and  _60
REMARK   25  A    between atoms: _60  and  _61
REMARK   26  A    between atoms: _60  and  _63
REMARK   27  A    between atoms: _63  and  _64
REMARK   28  A    between atoms: _64  and  _65
REMARK   29  A    between atoms: _65  and  _66
REMARK   30  A    between atoms: _66  and  _67
REMARK   31  A    between atoms: _71  and  _73
REMARK   32  A    between atoms: _73  and  _74
REMARK   33  A    between atoms: _73  and  _76
REMARK   34  A    between atoms: _76  and  _77
REMARK   35  A    between atoms: _79  and  _81
REMARK   36  A    between atoms: _81  and  _82
REMARK   37  A    between atoms: _81  and  _84
REMARK   38  A    between atoms: _84  and  _85
REMARK   39  A    between atoms: _90  and  _91
REMARK   40  A    between atoms: _93  and  _95
REMARK   41  A    between atoms: _95  and  _96
REMARK   42  A    between atoms: _95  and  _98
REMARK   43  A    between atoms: _98  and  _99
REMARK   44  A    between atoms: _104  and  _105
REMARK   45  A    between atoms: _107  and  _109
REMARK   46  A    between atoms: _109  and  _110
REMARK   47  A    between atoms: _113  and  _115
REMARK   48  A    between atoms: _115  and  _116
REMARK   49  A    between atoms: _115  and  _118
REMARK   50  A    between atoms: _118  and  _119
REMARK   51  A    between atoms: _119  and  _120
REMARK   52  A    between atoms: _120  and  _121
REMARK   53  A    between atoms: _121  and  _122
REMARK   54  A    between atoms: _126  and  _128
REMARK   55  A    between atoms: _128  and  _129
REMARK   56  A    between atoms: _128  and  _131
REMARK   57  A    between atoms: _131  and  _132
REMARK   58  A    between atoms: _135  and  _137
REMARK   59  A    between atoms: _137  and  _138
REMARK   60  A    between atoms: _137  and  _140
REMARK   61  A    between atoms: _140  and  _141
REMARK   62  A    between atoms: _143  and  _145
REMARK   63  A    between atoms: _145  and  _146
REMARK   64  A    between atoms: _145  and  _148
REMARK   65  A    between atoms: _148  and  _149
REMARK   66  A    between atoms: _149  and  _259
REMARK   67  A    between atoms: _150  and  _152
REMARK   68  A    between atoms: _152  and  _153
REMARK   69  A    between atoms: _152  and  _155
REMARK   70  A    between atoms: _155  and  _156
REMARK   71  A    between atoms: _156  and  _157
REMARK   72  A    between atoms: _162  and  _164
REMARK   73  A    between atoms: _164  and  _165
REMARK   74  A    between atoms: _167  and  _169
REMARK   75  A    between atoms: _169  and  _170
REMARK   76  A    between atoms: _169  and  _172
REMARK   77  A    between atoms: _172  and  _173
REMARK   78  A    between atoms: _176  and  _178
REMARK   79  A    between atoms: _178  and  _179
REMARK   80  A    between atoms: _178  and  _181
REMARK   81  A    between atoms: _181  and  _182
REMARK   82  A    between atoms: _184  and  _186
REMARK   83  A    between atoms: _186  and  _187
REMARK   84  A    between atoms: _189  and  _191
REMARK   85  A    between atoms: _191  and  _192
REMARK   86  A    between atoms: _194  and  _196
REMARK   87  A    between atoms: _196  and  _197
REMARK   88  A    between atoms: _196  and  _199
REMARK   89  A    between atoms: _199  and  _200
REMARK   90  A    between atoms: _203  and  _205
REMARK   91  A    between atoms: _205  and  _206
REMARK   92  A    between atoms: _205  and  _208
REMARK   93  A    between atoms: _211  and  _213
REMARK   94  A    between atoms: _213  and  _214
REMARK   95  A    between atoms: _213  and  _216
REMARK   96  A    between atoms: _216  and  _217
REMARK   97  A    between atoms: _219  and  _221
REMARK   98  A    between atoms: _221  and  _222
REMARK   99  A    between atoms: _221  and  _224
REMARK  100  A    between atoms: _224  and  _225
REMARK  101  A    between atoms: _235  and  _237
REMARK  102  A    between atoms: _237  and  _238
REMARK  103  A    between atoms: _240  and  _242
REMARK  104  A    between atoms: _242  and  _243
REMARK  105  A    between atoms: _242  and  _245
REMARK  106  A    between atoms: _245  and  _246
REMARK  107  A    between atoms: _248  and  _250
REMARK  108  A    between atoms: _250  and  _251
REMARK  109  A    between atoms: _253  and  _255
REMARK  110  A    between atoms: _255  and  _256
REMARK  111  A    between atoms: _255  and  _258
REMARK  112  A    between atoms: _258  and  _259
REMARK  113  A    between atoms: _260  and  _262
REMARK  114  A    between atoms: _262  and  _263
REMARK  115  A    between atoms: _266  and  _268
REMARK  116  A    between atoms: _268  and  _269
REMARK  117  A    between atoms: _268  and  _271
REMARK  118  A    between atoms: _271  and  _272
REMARK  119  A    between atoms: _272  and  _273
REMARK  120  A    between atoms: _278  and  _280
REMARK  121  A    between atoms: _280  and  _281
REMARK  122  A    between atoms: _280  and  _283
REMARK  123  A    between atoms: _283  and  _284
REMARK  124  A    between atoms: _284  and  _285
REMARK  125  A    between atoms: _285  and  _286
REMARK  126  A    between atoms: _286  and  _287
REMARK  127  A    between atoms: _292  and  _293
REMARK  128  A    between atoms: _298  and  _300
REMARK  129  A    between atoms: _300  and  _301
REMARK  130  A    between atoms: _303  and  _305
REMARK  131  A    between atoms: _305  and  _306
REMARK  132  A    between atoms: _305  and  _308
REMARK  133  A    between atoms: _311  and  _313
REMARK  134  A    between atoms: _313  and  _314
REMARK  135  A    between atoms: _313  and  _316
REMARK  136  A    between atoms: _316  and  _317
REMARK  137  A    between atoms: _322  and  _323
REMARK                            x       y       z     vdW  Elec       q    Type
REMARK                         _______ _______ _______ _____ _____    ______ ____
ROOT
ATOM      1  CG  TYR A   1      -3.751 -12.802  25.715  0.00  0.00    -0.020 A 
ATOM      2  CD2 TYR A   1      -3.395 -14.155  25.581  0.00  0.00    -0.001 A 
ATOM      3  CE2 TYR A   1      -2.190 -14.546  24.949  0.00  0.00    +0.036 A 
ATOM      4  CZ  TYR A   1      -1.371 -13.559  24.437  0.00  0.00    +0.134 A 
ATOM      5  CE1 TYR A   1      -1.741 -12.211  24.556  0.00  0.00    +0.036 A 
ATOM      6  CD1 TYR A   1      -2.880 -11.849  25.223  0.00  0.00    -0.001 A 
ENDROOT
BRANCH   4   7
ATOM      7  OH  TYR A   1      -0.216 -13.822  23.731  0.00  0.00    -0.506 OA
ATOM      8  HH  TYR A   1      -0.437 -14.350  22.923  0.00  0.00    +0.292 HD
ENDBRANCH   4   7
BRANCH   1   9
ATOM      9  CB  TYR A   1      -5.082 -12.394  26.424  0.00  0.00    +0.051 C 
BRANCH   9  10
ATOM     10  CA  TYR A   1      -4.949 -11.893  27.873  0.00  0.00    +0.137 C 
BRANCH  10  11
ATOM     11  N   TYR A   1      -4.500 -12.991  28.755  0.00  0.00    -0.239 NA
ATOM     12  H   TYR A   1      -5.171 -13.745  29.004  0.00  0.00    +0.142 HD
ENDBRANCH  10  11
BRANCH  10  13
ATOM     13  C   TYR A   1      -6.329 -11.415  28.310  0.00  0.00    +0.224 C 
ATOM     14  O   TYR A   1      -7.337 -11.615  27.699  0.00  0.00    -0.287 OA
ENDBRANCH  10  13
ENDBRANCH   9  10
ENDBRANCH   1   9
TORSDOF 5
REMARK  Name = ../refined-set-2016/4abf/4abf_pocket.pdb
REMARK  137 active torsions:
REMARK  status: ('A' for Active; 'I' for Inactive)
REMARK    1  A    between atoms: _1  and  _3
REMARK    2  A    between atoms: _3  and  _4
REMARK    3  A    between atoms: _3  and  _6
REMARK    4  A    between atoms: _9  and  _11
REMARK    5  A    between atoms: _11  and  _12
REMARK    6  A    between atoms: _11  and  _14
REMARK    7  A    between atoms: _14  and  _15
REMARK    8  A    between atoms: _20  and  _22
REMARK    9  A    between atoms: _22  and  _23
REMARK   10  A    between atoms: _22  and  _25
REMARK   11  A    between atoms: _25  and  _26
REMARK   12  A    between atoms: _29  and  _31
REMARK   13  A    between atoms: _31  and  _32
REMARK   14  A    between atoms: _31  and  _34
REMARK   15  A    between atoms: _34  and  _35
REMARK   16  A    between atoms: _38  and  _40
REMARK   17  A    between atoms: _40  and  _41
REMARK   18  A    between atoms: _40  and  _43
REMARK   19  A    between atoms: _43  and  _44
REMARK   20  A    between atoms: _47  and  _49
REMARK   21  A    between atoms: _49  and  _50
REMARK   22  A    between atoms: _49  and  _52
REMARK   23  A    between atoms: _52  and  _53
REMARK   24  A    between atoms: _58  and  _60
REMARK   25  A    between atoms: _60  and  _61
REMARK   26  A    between atoms: _60  and  _63
REMARK   27  A    between atoms: _63  and  _64
REMARK   28  A    between atoms: _64  and  _65
REMARK   29  A    between atoms: _65  and  _66
REMARK   30  A    between atoms: _66  and  _67
REMARK   31  A    between atoms: _71  and  _73
REMARK   32  A    between atoms: _73  and  _74
REMARK   33  A    between atoms: _73  and  _76
REMARK   34  A    between atoms: _76  and  _77
REMARK   35  A    between atoms: _79  and  _81
REMARK   36  A    between atoms: _81  and  _82
REMARK   37  A    between atoms: _81  and  _84
REMARK   38  A    between atoms: _84  and  _85
REMARK   39  A    between atoms: _90  and  _91
REMARK   40  A    between atoms: _93  and  _95
REMARK   41  A    between atoms: _95  and  _96
REMARK   42  A    between atoms: _95  and  _98
REMARK   43  A    between atoms: _98  and  _99
REMARK   44  A    between atoms: _104  and  _105
REMARK   45  A    between atoms: _107  and  _109
REMARK   46  A    between atoms: _109  and  _110
REMARK   47  A    between atoms: _113  and  _115
REMARK   48  A    between atoms: _115  and  _116
REMARK   49  A    between atoms: _115  and  _118
REMARK   50  A    between atoms: _118  and  _119
REMARK   51  A    between atoms: _119  and  _120
REMARK   52  A    between atoms: _120  and  _121
REMARK   53  A    between atoms: _121  and  _122
REMARK   54  A    between atoms: _126  and  _128
REMARK   55  A    between atoms: _128  and  _129
REMARK   56  A    between atoms: _128  and  _131
REMARK   57  A    between atoms: _131  and  _132
REMARK   58  A    between atoms: _135  and  _137
REMARK   59  A    between atoms: _137  and  _138
REMARK   60  A    between atoms: _137  and  _140
REMARK   61  A    between atoms: _140  and  _141
REMARK   62  A    between atoms: _143  and  _145
REMARK   63  A    between atoms: _145  and  _146
REMARK   64  A    between atoms: _145  and  _148
REMARK   65  A    between atoms: _148  and  _149
REMARK   66  A    between atoms: _149  and  _259
REMARK   67  A    between atoms: _150  and  _152
REMARK   68  A    between atoms: _152  and  _153
REMARK   69  A    between atoms: _152  and  _155
REMARK   70  A    between atoms: _155  and  _156
REMARK   71  A    between atoms: _156  and  _157
REMARK   72  A    between atoms: _162  and  _164
REMARK   73  A    between atoms: _164  and  _165
REMARK   74  A    between atoms: _167  and  _169
REMARK   75  A    between atoms: _169  and  _170
REMARK   76  A    between atoms: _169  and  _172
REMARK   77  A    between atoms: _172  and  _173
REMARK   78  A    between atoms: _176  and  _178
REMARK   79  A    between atoms: _178  and  _179
REMARK   80  A    between atoms: _178  and  _181
REMARK   81  A    between atoms: _181  and  _182
REMARK   82  A    between atoms: _184  and  _186
REMARK   83  A    between atoms: _186  and  _187
REMARK   84  A    between atoms: _189  and  _191
REMARK   85  A    between atoms: _191  and  _192
REMARK   86  A    between atoms: _194  and  _196
REMARK   87  A    between atoms: _196  and  _197
REMARK   88  A    between atoms: _196  and  _199
REMARK   89  A    between atoms: _199  and  _200
REMARK   90  A    between atoms: _203  and  _205
REMARK   91  A    between atoms: _205  and  _206
REMARK   92  A    between atoms: _205  and  _208
REMARK   93  A    between atoms: _211  and  _213
REMARK   94  A    between atoms: _213  and  _214
REMARK   95  A    between atoms: _213  and  _216
REMARK   96  A    between atoms: _216  and  _217
REMARK   97  A    between atoms: _219  and  _221
REMARK   98  A    between atoms: _221  and  _222
REMARK   99  A    between atoms: _221  and  _224
REMARK  100  A    between atoms: _224  and  _225
REMARK  101  A    between atoms: _235  and  _237
REMARK  102  A    between atoms: _237  and  _238
REMARK  103  A    between atoms: _240  and  _242
REMARK  104  A    between atoms: _242  and  _243
REMARK  105  A    between atoms: _242  and  _245
REMARK  106  A    between atoms: _245  and  _246
REMARK  107  A    between atoms: _248  and  _250
REMARK  108  A    between atoms: _250  and  _251
REMARK  109  A    between atoms: _253  and  _255
REMARK  110  A    between atoms: _255  and  _256
REMARK  111  A    between atoms: _255  and  _258
REMARK  112  A    between atoms: _258  and  _259
REMARK  113  A    between atoms: _260  and  _262
REMARK  114  A    between atoms: _262  and  _263
REMARK  115  A    between atoms: _266  and  _268
REMARK  116  A    between atoms: _268  and  _269
REMARK  117  A    between atoms: _268  and  _271
REMARK  118  A    between atoms: _271  and  _272
REMARK  119  A    between atoms: _272  and  _273
REMARK  120  A    between atoms: _278  and  _280
REMARK  121  A    between atoms: _280  and  _281
REMARK  122  A    between atoms: _280  and  _283
REMARK  123  A    between atoms: _283  and  _284
REMARK  124  A    between atoms: _284  and  _285
REMARK  125  A    between atoms: _285  and  _286
REMARK  126  A    between atoms: _286  and  _287
REMARK  127  A    between atoms: _292  and  _293
REMARK  128  A    between atoms: _298  and  _300
REMARK  129  A    between atoms: _300  and  _301
REMARK  130  A    between atoms: _303  and  _305
REMARK  131  A    between atoms: _305  and  _306
REMARK  132  A    between atoms: _305  and  _308
REMARK  133  A    between atoms: _311  and  _313
REMARK  134  A    between atoms: _313  and  _314
REMARK  135  A    between atoms: _313  and  _316
REMARK  136  A    between atoms: _316  and  _317
REMARK  137  A    between atoms: _322  and  _323
REMARK                            x       y       z     vdW  Elec       q    Type
REMARK                         _______ _______ _______ _____ _____    ______ ____
ROOT
ATOM      1  CA  ALA A   1      -1.540 -23.193  22.877  0.00  0.00    +0.133 C 
ATOM      2  CB  ALA A   1      -1.762 -24.034  21.600  0.00  0.00    +0.027 C 
ENDROOT
BRANCH   1   3
ATOM      3  N   ALA A   1      -2.382 -21.955  22.861  0.00  0.00    -0.239 NA
ATOM      4  H   ALA A   1      -2.022 -21.092  22.405  0.00  0.00    +0.142 HD
ENDBRANCH   1   3
BRANCH   1   5
ATOM      5  C   ALA A   1      -0.121 -22.754  23.010  0.00  0.00    +0.224 C 
ATOM      6  O   ALA A   1       0.248 -21.668  22.520  0.00  0.00    -0.287 OA
ENDBRANCH   1   5
TORSDOF 2
REMARK  Name = ../refined-set-2016/4abf/4abf_pocket.pdb
REMARK  137 active torsions:
REMARK  status: ('A' for Active; 'I' for Inactive)
REMARK    1  A    between atoms: _1  and  _3
REMARK    2  A    between atoms: _3  and  _4
REMARK    3  A    between atoms: _3  and  _6
REMARK    4  A    between atoms: _9  and  _11
REMARK    5  A    between atoms: _11  and  _12
REMARK    6  A    between atoms: _11  and  _14
REMARK    7  A    between atoms: _14  and  _15
REMARK    8  A    between atoms: _20  and  _22
REMARK    9  A    between atoms: _22  and  _23
REMARK   10  A    between atoms: _22  and  _25
REMARK   11  A    between atoms: _25  and  _26
REMARK   12  A    between atoms: _29  and  _31
REMARK   13  A    between atoms: _31  and  _32
REMARK   14  A    between atoms: _31  and  _34
REMARK   15  A    between atoms: _34  and  _35
REMARK   16  A    between atoms: _38  and  _40
REMARK   17  A    between atoms: _40  and  _41
REMARK   18  A    between atoms: _40  and  _43
REMARK   19  A    between atoms: _43  and  _44
REMARK   20  A    between atoms: _47  and  _49
REMARK   21  A    between atoms: _49  and  _50
REMARK   22  A    between atoms: _49  and  _52
REMARK   23  A    between atoms: _52  and  _53
REMARK   24  A    between atoms: _58  and  _60
REMARK   25  A    between atoms: _60  and  _61
REMARK   26  A    between atoms: _60  and  _63
REMARK   27  A    between atoms: _63  and  _64
REMARK   28  A    between atoms: _64  and  _65
REMARK   29  A    between atoms: _65  and  _66
REMARK   30  A    between atoms: _66  and  _67
REMARK   31  A    between atoms: _71  and  _73
REMARK   32  A    between atoms: _73  and  _74
REMARK   33  A    between atoms: _73  and  _76
REMARK   34  A    between atoms: _76  and  _77
REMARK   35  A    between atoms: _79  and  _81
REMARK   36  A    between atoms: _81  and  _82
REMARK   37  A    between atoms: _81  and  _84
REMARK   38  A    between atoms: _84  and  _85
REMARK   39  A    between atoms: _90  and  _91
REMARK   40  A    between atoms: _93  and  _95
REMARK   41  A    between atoms: _95  and  _96
REMARK   42  A    between atoms: _95  and  _98
REMARK   43  A    between atoms: _98  and  _99
REMARK   44  A    between atoms: _104  and  _105
REMARK   45  A    between atoms: _107  and  _109
REMARK   46  A    between atoms: _109  and  _110
REMARK   47  A    between atoms: _113  and  _115
REMARK   48  A    between atoms: _115  and  _116
REMARK   49  A    between atoms: _115  and  _118
REMARK   50  A    between atoms: _118  and  _119
REMARK   51  A    between atoms: _119  and  _120
REMARK   52  A    between atoms: _120  and  _121
REMARK   53  A    between atoms: _121  and  _122
REMARK   54  A    between atoms: _126  and  _128
REMARK   55  A    between atoms: _128  and  _129
REMARK   56  A    between atoms: _128  and  _131
REMARK   57  A    between atoms: _131  and  _132
REMARK   58  A    between atoms: _135  and  _137
REMARK   59  A    between atoms: _137  and  _138
REMARK   60  A    between atoms: _137  and  _140
REMARK   61  A    between atoms: _140  and  _141
REMARK   62  A    between atoms: _143  and  _145
REMARK   63  A    between atoms: _145  and  _146
REMARK   64  A    between atoms: _145  and  _148
REMARK   65  A    between atoms: _148  and  _149
REMARK   66  A    between atoms: _149  and  _259
REMARK   67  A    between atoms: _150  and  _152
REMARK   68  A    between atoms: _152  and  _153
REMARK   69  A    between atoms: _152  and  _155
REMARK   70  A    between atoms: _155  and  _156
REMARK   71  A    between atoms: _156  and  _157
REMARK   72  A    between atoms: _162  and  _164
REMARK   73  A    between atoms: _164  and  _165
REMARK   74  A    between atoms: _167  and  _169
REMARK   75  A    between atoms: _169  and  _170
REMARK   76  A    between atoms: _169  and  _172
REMARK   77  A    between atoms: _172  and  _173
REMARK   78  A    between atoms: _176  and  _178
REMARK   79  A    between atoms: _178  and  _179
REMARK   80  A    between atoms: _178  and  _181
REMARK   81  A    between atoms: _181  and  _182
REMARK   82  A    between atoms: _184  and  _186
REMARK   83  A    between atoms: _186  and  _187
REMARK   84  A    between atoms: _189  and  _191
REMARK   85  A    between atoms: _191  and  _192
REMARK   86  A    between atoms: _194  and  _196
REMARK   87  A    between atoms: _196  and  _197
REMARK   88  A    between atoms: _196  and  _199
REMARK   89  A    between atoms: _199  and  _200
REMARK   90  A    between atoms: _203  and  _205
REMARK   91  A    between atoms: _205  and  _206
REMARK   92  A    between atoms: _205  and  _208
REMARK   93  A    between atoms: _211  and  _213
REMARK   94  A    between atoms: _213  and  _214
REMARK   95  A    between atoms: _213  and  _216
REMARK   96  A    between atoms: _216  and  _217
REMARK   97  A    between atoms: _219  and  _221
REMARK   98  A    between atoms: _221  and  _222
REMARK   99  A    between atoms: _221  and  _224
REMARK  100  A    between atoms: _224  and  _225
REMARK  101  A    between atoms: _235  and  _237
REMARK  102  A    between atoms: _237  and  _238
REMARK  103  A    between atoms: _240  and  _242
REMARK  104  A    between atoms: _242  and  _243
REMARK  105  A    between atoms: _242  and  _245
REMARK  106  A    between atoms: _245  and  _246
REMARK  107  A    between atoms: _248  and  _250
REMARK  108  A    between atoms: _250  and  _251
REMARK  109  A    between atoms: _253  and  _255
REMARK  110  A    between atoms: _255  and  _256
REMARK  111  A    between atoms: _255  and  _258
REMARK  112  A    between atoms: _258  and  _259
REMARK  113  A    between atoms: _260  and  _262
REMARK  114  A    between atoms: _262  and  _263
REMARK  115  A    between atoms: _266  and  _268
REMARK  116  A    between atoms: _268  and  _269
REMARK  117  A    between atoms: _268  and  _271
REMARK  118  A    between atoms: _271  and  _272
REMARK  119  A    between atoms: _272  and  _273
REMARK  120  A    between atoms: _278  and  _280
REMARK  121  A    between atoms: _280  and  _281
REMARK  122  A    between atoms: _280  and  _283
REMARK  123  A    between atoms: _283  and  _284
REMARK  124  A    between atoms: _284  and  _285
REMARK  125  A    between atoms: _285  and  _286
REMARK  126  A    between atoms: _286  and  _287
REMARK  127  A    between atoms: _292  and  _293
REMARK  128  A    between atoms: _298  and  _300
REMARK  129  A    between atoms: _300  and  _301
REMARK  130  A    between atoms: _303  and  _305
REMARK  131  A    between atoms: _305  and  _306
REMARK  132  A    between atoms: _305  and  _308
REMARK  133  A    between atoms: _311  and  _313
REMARK  134  A    between atoms: _313  and  _314
REMARK  135  A    between atoms: _313  and  _316
REMARK  136  A    between atoms: _316  and  _317
REMARK  137  A    between atoms: _322  and  _323
REMARK                            x       y       z     vdW  Elec       q    Type
REMARK                         _______ _______ _______ _____ _____    ______ ____
ROOT
ATOM      1  CB  SER A   8       7.111 -14.603  18.770  0.00  0.00    +0.098 C 
ENDROOT
BRANCH   1   2
ATOM      2  SG  SER A   8       6.287 -13.666  17.451  0.00  0.00    -0.080 S 
BRANCH   2   3
ATOM      3  SG  TRP A   4       7.507 -14.203  15.815  0.00  0.00    -0.080 S 
BRANCH   3   4
ATOM      4  CB  TRP A   4       6.842 -15.809  15.346  0.00  0.00    +0.098 C 
BRANCH   4   5
ATOM      5  CA  TRP A   4       5.295 -15.874  15.061  0.00  0.00    +0.160 C 
BRANCH   5   8
ATOM      6  C   SER A   3       4.643 -17.813  16.371  0.00  0.00    +0.243 C 
ATOM      7  O   SER A   3       4.630 -17.145  17.428  0.00  0.00    -0.273 OA
ATOM      8  N   TRP A   4       4.860 -17.297  15.191  0.00  0.00    -0.296 N 
ATOM      9  H   TRP A   4       4.729 -17.879  14.339  0.00  0.00    +0.150 HD
BRANCH   6  10
ATOM     10  CA  SER A   3       4.301 -19.279  16.429  0.00  0.00    +0.178 C 
BRANCH  10  12
ATOM     11  C   VAL A   2       5.569 -20.074  18.344  0.00  0.00    +0.241 C 
ATOM     12  N   SER A   3       4.390 -19.787  17.805  0.00  0.00    -0.295 N 
ATOM     13  H   SER A   3       3.522 -19.923  18.361  0.00  0.00    +0.150 HD
ATOM     14  O   VAL A   2       6.606 -20.269  17.632  0.00  0.00    -0.273 OA
BRANCH  11  15
ATOM     15  CA  VAL A   2       5.632 -20.233  19.847  0.00  0.00    +0.160 C 
BRANCH  15  18
ATOM     16  C   ILE A   1       7.038 -21.324  21.502  0.00  0.00    +0.238 C 
ATOM     17  O   ILE A   1       6.068 -21.354  22.321  0.00  0.00    -0.274 OA
ATOM     18  N   VAL A   2       6.917 -20.868  20.251  0.00  0.00    -0.297 N 
ATOM     19  H   VAL A   2       7.703 -20.955  19.575  0.00  0.00    +0.150 HD
BRANCH  16  20
ATOM     20  CA  ILE A   1       8.438 -21.840  21.904  0.00  0.00    +0.145 C 
BRANCH  20  21
ATOM     21  N   ILE A   1       8.982 -20.923  22.956  0.00  0.00    -0.238 NA
ATOM     22  H   ILE A   1       8.286 -20.545  23.630  0.00  0.00    +0.142 HD
ENDBRANCH  20  21
BRANCH  20  23
ATOM     23  CB  ILE A   1       8.369 -23.300  22.412  0.00  0.00    +0.026 C 
BRANCH  23  24
ATOM     24  CG  ILE A   1       9.767 -23.875  22.622  0.00  0.00    -0.000 C 
BRANCH  24  25
ATOM     25  CD  ILE A   1       9.841 -25.338  23.046  0.00  0.00    -0.024 C 
BRANCH  25  26
ATOM     26  CE  ILE A   1       9.234 -25.492  24.421  0.00  0.00    -0.086 C 
BRANCH  26  27
ATOM     27  NZ  ILE A   1       9.909 -26.738  24.899  0.00  0.00    +0.380 N 
ATOM     28  HZ1 ILE A   1       9.575 -26.966  25.857  0.00  0.00    -0.089 HD
ATOM     29  HZ2 ILE A   1      10.938 -26.589  24.915  0.00  0.00    -0.089 HD
ATOM     30  HZ3 ILE A   1       9.681 -27.523  24.256  0.00  0.00    -0.089 HD
ENDBRANCH  26  27
ENDBRANCH  25  26
ENDBRANCH  24  25
ENDBRANCH  23  24
ENDBRANCH  20  23
ENDBRANCH  16  20
ENDBRANCH  15  18
BRANCH  15  31
ATOM     31  CB  VAL A   2       5.566 -18.819  20.479  0.00  0.00    +0.143 C 
BRANCH  31  32
ATOM     32  CG  VAL A   2       4.221 -18.184  20.524  0.00  0.00    +0.367 C 
ATOM     33  OD2 VAL A   2       4.188 -17.013  21.043  0.00  0.00    -0.246 OA
ATOM     34  OD1 VAL A   2       3.160 -18.716  20.154  0.00  0.00    -0.246 OA
ENDBRANCH  31  32
ENDBRANCH  15  31
ENDBRANCH  11  15
ENDBRANCH  10  12
BRANCH  10  35
ATOM     35  CB  SER A   3       2.876 -19.559  15.904  0.00  0.00    +0.166 C 
BRANCH  35  36
ATOM     36  OG  SER A   3       1.923 -18.933  16.701  0.00  0.00    -0.380 OA
ATOM     37  H   SER A   3       1.994 -19.273  17.628  0.00  0.00    +0.211 HD
ENDBRANCH  35  36
ENDBRANCH  10  35
ENDBRANCH   6  10
ENDBRANCH   5   8
BRANCH   5  38
ATOM     38  C   TRP A   4       4.876 -15.312  13.760  0.00  0.00    +0.242 C 
ATOM     39  N   GLN A   5       5.080 -13.994  13.596  0.00  0.00    -0.297 N 
ATOM     40  H   GLN A   5       5.449 -13.445  14.399  0.00  0.00    +0.150 HD
ATOM     41  O   TRP A   4       4.221 -15.939  12.955  0.00  0.00    -0.273 OA
BRANCH  39  42
ATOM     42  CA  GLN A   5       4.804 -13.290  12.327  0.00  0.00    +0.149 C 
BRANCH  42  43
ATOM     43  C   GLN A   5       5.293 -14.143  11.121  0.00  0.00    +0.241 C 
ATOM     44  O   GLN A   5       6.418 -14.705  11.176  0.00  0.00    -0.273 OA
ATOM     45  N   GLY A   6       4.434 -14.300  10.126  0.00  0.00    -0.295 N 
ATOM     46  H   GLY A   6       3.524 -13.802  10.204  0.00  0.00    +0.150 HD
BRANCH  45  47
ATOM     47  CA  GLY A   6       4.648 -15.113   8.923  0.00  0.00    +0.176 C 
BRANCH  47  48
ATOM     48  C   GLY A   6       4.055 -16.536   9.036  0.00  0.00    +0.243 C 
ATOM     49  N   ASP A   7       3.783 -16.981  10.269  0.00  0.00    -0.296 N 
ATOM     50  H   ASP A   7       4.072 -16.402  11.083  0.00  0.00    +0.150 HD
ATOM     51  O   GLY A   6       3.920 -17.229   8.024  0.00  0.00    -0.273 OA
BRANCH  49  52
ATOM     52  CA  ASP A   7       3.083 -18.273  10.523  0.00  0.00    +0.160 C 
BRANCH  52  53
ATOM     53  C   ASP A   7       1.592 -18.111  10.383  0.00  0.00    +0.241 C 
ATOM     54  N   SER A   8       1.062 -16.881  10.470  0.00  0.00    -0.295 N 
ATOM     55  H   SER A   8       1.733 -16.093  10.566  0.00  0.00    +0.150 HD
ATOM     56  O   ASP A   7       0.844 -19.113  10.289  0.00  0.00    -0.273 OA
BRANCH  54  57
ATOM     57  CA  SER A   8      -0.354 -16.530  10.445  0.00  0.00    +0.178 C 
BRANCH  57  58
ATOM     58  C   SER A   8      -1.094 -17.302   9.393  0.00  0.00    +0.243 C 
ATOM     59  N   GLY A   9      -2.250 -17.838   9.744  0.00  0.00    -0.295 N 
ATOM     60  H   GLY A   9      -2.566 -17.741  10.730  0.00  0.00    +0.150 HD
ATOM     61  O   SER A   8      -0.612 -17.432   8.238  0.00  0.00    -0.273 OA
BRANCH  59  62
ATOM     62  CA  GLY A   9      -3.098 -18.558   8.806  0.00  0.00    +0.176 C 
BRANCH  62  63
ATOM     63  C   GLY A   9      -2.774 -20.037   8.738  0.00  0.00    +0.243 C 
ATOM     64  N   GLY A  10      -1.636 -20.470   9.267  0.00  0.00    -0.296 N 
ATOM     65  H   GLY A  10      -1.008 -19.792   9.744  0.00  0.00    +0.150 HD
ATOM     66  O   GLY A   9      -3.595 -20.812   8.168  0.00  0.00    -0.273 OA
BRANCH  64  67
ATOM     67  CA  GLY A  10      -1.237 -21.903   9.194  0.00  0.00    +0.163 C 
BRANCH  67  68
ATOM     68  C   GLY A  10      -1.935 -22.767  10.233  0.00  0.00    +0.229 C 
ATOM     69  O   GLY A  10      -2.711 -22.330  11.076  0.00  0.00    -0.286 OA
ENDBRANCH  67  68
ENDBRANCH  64  67
ENDBRANCH  62  63
ENDBRANCH  59  62
ENDBRANCH  57  58
BRANCH  57  70
ATOM     70  CB  SER A   8      -0.511 -15.042  10.018  0.00  0.00    +0.166 C 
BRANCH  70  71
ATOM     71  OG  SER A   8      -0.124 -14.221  11.101  0.00  0.00    -0.380 OA
ATOM     72  H   SER A   8      -0.219 -13.270  10.843  0.00  0.00    +0.211 HD
ENDBRANCH  70  71
ENDBRANCH  57  70
ENDBRANCH  54  57
ENDBRANCH  52  53
BRANCH  52  73
ATOM     73  CB  ASP A   7       3.456 -18.802  11.886  0.00  0.00    +0.143 C 
BRANCH  73  74
ATOM     74  CG  ASP A   7       4.922 -19.268  11.994  0.00  0.00    +0.367 C 
ATOM     75  OD2 ASP A   7       5.476 -19.044  13.082  0.00  0.00    -0.246 OA
ATOM     76  OD1 ASP A   7       5.400 -19.837  11.015  0.00  0.00    -0.246 OA
ENDBRANCH  73  74
ENDBRANCH  52  73
ENDBRANCH  49  52
ENDBRANCH  47  48
ENDBRANCH  45  47
ENDBRANCH  42  43
BRANCH  42  77
ATOM     77  CB  GLN A   5       5.579 -11.917  12.308  0.00  0.00    +0.039 C 
BRANCH  77  78
ATOM     78  CG  GLN A   5       5.308 -10.871  11.192  0.00  0.00    +0.087 C 
BRANCH  78  79
ATOM     79  CD  GLN A   5       5.410 -11.300   9.724  0.00  0.00    +0.219 C 
ATOM     80  OE1 GLN A   5       6.428 -11.746   9.264  0.00  0.00    -0.275 OA
ATOM     81  NE2 GLN A   5       4.339 -11.090   8.933  0.00  0.00    -0.329 N 
ATOM     82 HE21 GLN A   5       3.462 -10.704   9.337  0.00  0.00    +0.145 HD
ATOM     83 HE22 GLN A   5       4.390 -11.314   7.919  0.00  0.00    +0.145 HD
ENDBRANCH  78  79
ENDBRANCH  77  78
ENDBRANCH  42  77
ENDBRANCH  39  42
ENDBRANCH   5  38
ENDBRANCH   4   5
ENDBRANCH   3   4
ENDBRANCH   2   3
ENDBRANCH   1   2
BRANCH   1  84
ATOM     84  CA  SER A   8       6.386 -14.302  20.141  0.00  0.00    +0.160 C 
BRANCH  84  85
ATOM     85  C   SER A   8       7.203 -14.896  21.188  0.00  0.00    +0.242 C 
ATOM     86  N   GLY A   9       6.767 -15.987  21.769  0.00  0.00    -0.297 N 
ATOM     87  H   GLY A   9       5.794 -16.293  21.567  0.00  0.00    +0.150 HD
ATOM     88  O   SER A   8       8.307 -14.328  21.494  0.00  0.00    -0.273 OA
BRANCH  86  89
ATOM     89  CA  GLY A   9       7.557 -16.789  22.673  0.00  0.00    +0.149 C 
ATOM     90  CB  GLY A   9       8.833 -17.337  22.047  0.00  0.00    +0.031 C 
BRANCH  89  91
ATOM     91  C   GLY A   9       7.919 -16.006  23.991  0.00  0.00    +0.241 C 
ATOM     92  O   GLY A   9       8.865 -16.367  24.678  0.00  0.00    -0.273 OA
ATOM     93  N   GLY A  10       7.097 -15.015  24.309  0.00  0.00    -0.298 N 
ATOM     94  H   GLY A  10       6.304 -14.779  23.679  0.00  0.00    +0.150 HD
BRANCH  93  95
ATOM     95  CA  GLY A  10       7.305 -14.230  25.577  0.00  0.00    +0.137 C 
BRANCH  95  96
ATOM     96  C   GLY A  10       6.639 -14.996  26.733  0.00  0.00    +0.227 C 
ATOM     97  O   GLY A  10       5.569 -15.588  26.613  0.00  0.00    -0.286 OA
ENDBRANCH  95  96
BRANCH  95  98
ATOM     98  CB  GLY A  10       6.670 -12.815  25.444  0.00  0.00    +0.037 C 
BRANCH  98  99
ATOM     99  CG  GLY A  10       7.286 -12.044  24.227  0.00  0.00    +0.087 C 
BRANCH  99 100
ATOM    100  CD  GLY A  10       8.745 -11.902  24.382  0.00  0.00    +0.219 C 
ATOM    101  OE1 GLY A  10       9.223 -11.237  25.367  0.00  0.00    -0.275 OA
ATOM    102  NE2 GLY A  10       9.579 -12.531  23.499  0.00  0.00    -0.329 N 
ATOM    103 HE21 GLY A  10      10.610 -12.471  23.625  0.00  0.00    +0.145 HD
ATOM    104 HE22 GLY A  10       9.182 -13.069  22.702  0.00  0.00    +0.145 HD
ENDBRANCH  99 100
ENDBRANCH  98  99
ENDBRANCH  95  98
ENDBRANCH  93  95
ENDBRANCH  89  91
ENDBRANCH  86  89
ENDBRANCH  84  85
BRANCH  84 105
ATOM    105  N   SER A   8       6.180 -12.835  20.351  0.00  0.00    -0.296 N 
ATOM    106  H   SER A   8       7.010 -12.265  20.611  0.00  0.00    +0.150 HD
ATOM    107  C   ASP A   7       5.049 -12.224  20.234  0.00  0.00    +0.243 C 
ATOM    108  O   ASP A   7       3.992 -12.835  19.996  0.00  0.00    -0.273 OA
BRANCH 107 109
ATOM    109  CA  ASP A   7       5.084 -10.726  20.474  0.00  0.00    +0.176 C 
BRANCH 109 110
ATOM    110  N   ASP A   7       3.720 -10.226  20.791  0.00  0.00    -0.295 N 
ATOM    111  C   GLY A   6       3.225 -10.636  21.697  0.00  0.00    +0.243 C 
ATOM    112  O   GLY A   6       3.838 -11.353  22.543  0.00  0.00    -0.273 OA
ATOM    113  H   ASP A   7       3.249  -9.521  20.189  0.00  0.00    +0.150 HD
BRANCH 111 114
ATOM    114  CA  GLY A   6       1.703 -10.317  21.850  0.00  0.00    +0.178 C 
BRANCH 114 115
ATOM    115  N   GLY A   6       0.971 -11.587  21.630  0.00  0.00    -0.295 N 
ATOM    116  H   GLY A   6       1.121 -12.407  22.252  0.00  0.00    +0.150 HD
ATOM    117  C   GLN A   5       0.130 -11.645  20.629  0.00  0.00    +0.243 C 
ATOM    118  O   GLN A   5      -0.103 -10.643  19.920  0.00  0.00    -0.273 OA
BRANCH 117 119
ATOM    119  CA  GLN A   5      -0.508 -12.988  20.352  0.00  0.00    +0.176 C 
BRANCH 119 120
ATOM    120  N   GLN A   5      -0.985 -12.969  18.944  0.00  0.00    -0.295 N 
ATOM    121  H   GLN A   5      -0.817 -12.106  18.389  0.00  0.00    +0.150 HD
ATOM    122  C   TRP A   4      -1.622 -13.995  18.334  0.00  0.00    +0.241 C 
ATOM    123  O   TRP A   4      -1.703 -15.094  18.889  0.00  0.00    -0.273 OA
BRANCH 122 124
ATOM    124  CA  TRP A   4      -2.274 -13.652  17.032  0.00  0.00    +0.153 C 
BRANCH 124 125
ATOM    125  N   TRP A   4      -2.946 -14.868  16.515  0.00  0.00    -0.297 N 
ATOM    126  H   TRP A   4      -3.131 -15.688  17.127  0.00  0.00    +0.150 HD
ATOM    127  C   SER A   3      -3.301 -14.862  15.234  0.00  0.00    +0.243 C 
ATOM    128  O   SER A   3      -3.031 -13.899  14.460  0.00  0.00    -0.273 OA
BRANCH 127 129
ATOM    129  CA  SER A   3      -4.082 -16.044  14.639  0.00  0.00    +0.178 C 
BRANCH 129 130
ATOM    130  N   SER A   3      -3.302 -17.293  14.687  0.00  0.00    -0.295 N 
ATOM    131  H   SER A   3      -2.959 -17.657  15.599  0.00  0.00    +0.150 HD
ATOM    132  C   VAL A   2      -3.035 -17.957  13.564  0.00  0.00    +0.241 C 
ATOM    133  O   VAL A   2      -3.231 -17.489  12.435  0.00  0.00    -0.273 OA
BRANCH 132 134
ATOM    134  CA  VAL A   2      -2.403 -19.340  13.706  0.00  0.00    +0.148 C 
BRANCH 134 135
ATOM    135  N   VAL A   2      -3.279 -20.350  13.087  0.00  0.00    -0.297 N 
ATOM    136  C   ILE A   1      -4.569 -20.503  13.488  0.00  0.00    +0.238 C 
ATOM    137  O   ILE A   1      -5.034 -19.847  14.446  0.00  0.00    -0.274 OA
ATOM    138  H   VAL A   2      -2.904 -20.957  12.330  0.00  0.00    +0.150 HD
BRANCH 136 139
ATOM    139  CA  ILE A   1      -5.392 -21.527  12.747  0.00  0.00    +0.145 C 
BRANCH 139 140
ATOM    140  CB  ILE A   1      -6.453 -20.787  11.909  0.00  0.00    +0.025 C 
ATOM    141  CG2 ILE A   1      -5.776 -19.843  10.904  0.00  0.00    +0.002 C 
BRANCH 140 142
ATOM    142  CG1 ILE A   1      -7.392 -21.795  11.263  0.00  0.00    +0.002 C 
ATOM    143  CD1 ILE A   1      -8.620 -21.082  10.698  0.00  0.00    +0.000 C 
ENDBRANCH 140 142
ENDBRANCH 139 140
BRANCH 139 144
ATOM    144  N   ILE A   1      -6.044 -22.354  13.775  0.00  0.00    -0.238 NA
ATOM    145  H   ILE A   1      -6.590 -21.866  14.514  0.00  0.00    +0.142 HD
ENDBRANCH 139 144
ENDBRANCH 136 139
ENDBRANCH 134 135
BRANCH 134 146
ATOM    146  CB  VAL A   2      -0.981 -19.391  13.074  0.00  0.00    +0.027 C 
ATOM    147  CG2 VAL A   2      -0.058 -18.360  13.734  0.00  0.00    +0.002 C 
ATOM    148  CG1 VAL A   2      -0.337 -20.777  13.140  0.00  0.00    +0.002 C 
ENDBRANCH 134 146
ENDBRANCH 132 134
ENDBRANCH 129 130
BRANCH 129 149
ATOM    149  CB  SER A   3      -5.453 -16.279  15.322  0.00  0.00    +0.166 C 
BRANCH 149 150
ATOM    150  OG  SER A   3      -6.271 -15.093  15.222  0.00  0.00    -0.380 OA
ATOM    151  H   SER A   3      -6.417 -14.874  14.268  0.00  0.00    +0.211 HD
ENDBRANCH 149 150
ENDBRANCH 129 149
ENDBRANCH 127 129
ENDBRANCH 124 125
BRANCH 124 152
ATOM    152  CB  TRP A   4      -3.330 -12.483  17.231  0.00  0.00    +0.057 C 
BRANCH 152 153
ATOM    153  CG  TRP A   4      -4.450 -12.766  18.207  0.00  0.00    -0.002 A 
ATOM    154  CD2 TRP A   4      -4.497 -12.314  19.618  0.00  0.00    +0.013 A 
ATOM    155  CE3 TRP A   4      -3.622 -11.572  20.449  0.00  0.00    +0.001 A 
ATOM    156  CZ3 TRP A   4      -4.006 -11.327  21.764  0.00  0.00    +0.000 A 
ATOM    157  CH2 TRP A   4      -5.227 -11.756  22.231  0.00  0.00    +0.001 A 
ATOM    158  CZ2 TRP A   4      -6.128 -12.467  21.462  0.00  0.00    +0.017 A 
ATOM    159  CE2 TRP A   4      -5.770 -12.761  20.149  0.00  0.00    +0.056 A 
ATOM    160  NE1 TRP A   4      -6.440 -13.398  19.139  0.00  0.00    -0.352 N 
ATOM    161  HE1 TRP A   4      -7.395 -13.803  19.216  0.00  0.00    +0.166 HD
ATOM    162  CD1 TRP A   4      -5.642 -13.422  17.984  0.00  0.00    +0.068 A 
ENDBRANCH 152 153
ENDBRANCH 124 152
ENDBRANCH 122 124
ENDBRANCH 119 120
ENDBRANCH 117 119
ENDBRANCH 114 115
BRANCH 114 163
ATOM    163  CB  GLY A   6       1.245  -9.768  23.218  0.00  0.00    +0.166 C 
BRANCH 163 164
ATOM    164  O   GLY A   6       2.122  -8.734  23.666  0.00  0.00    -0.380 OA
ATOM    165  H   GLY A   6       2.122  -7.995  23.008  0.00  0.00    +0.211 HD
ENDBRANCH 163 164
ENDBRANCH 114 163
ENDBRANCH 111 114
ENDBRANCH 109 110
ENDBRANCH 107 109
ENDBRANCH  84 105
ENDBRANCH   1  84
TORSDOF 73
REMARK  Name = ../refined-set-2016/4abf/4abf_pocket.pdb
REMARK  137 active torsions:
REMARK  status: ('A' for Active; 'I' for Inactive)
REMARK    1  A    between atoms: _1  and  _3
REMARK    2  A    between atoms: _3  and  _4
REMARK    3  A    between atoms: _3  and  _6
REMARK    4  A    between atoms: _9  and  _11
REMARK    5  A    between atoms: _11  and  _12
REMARK    6  A    between atoms: _11  and  _14
REMARK    7  A    between atoms: _14  and  _15
REMARK    8  A    between atoms: _20  and  _22
REMARK    9  A    between atoms: _22  and  _23
REMARK   10  A    between atoms: _22  and  _25
REMARK   11  A    between atoms: _25  and  _26
REMARK   12  A    between atoms: _29  and  _31
REMARK   13  A    between atoms: _31  and  _32
REMARK   14  A    between atoms: _31  and  _34
REMARK   15  A    between atoms: _34  and  _35
REMARK   16  A    between atoms: _38  and  _40
REMARK   17  A    between atoms: _40  and  _41
REMARK   18  A    between atoms: _40  and  _43
REMARK   19  A    between atoms: _43  and  _44
REMARK   20  A    between atoms: _47  and  _49
REMARK   21  A    between atoms: _49  and  _50
REMARK   22  A    between atoms: _49  and  _52
REMARK   23  A    between atoms: _52  and  _53
REMARK   24  A    between atoms: _58  and  _60
REMARK   25  A    between atoms: _60  and  _61
REMARK   26  A    between atoms: _60  and  _63
REMARK   27  A    between atoms: _63  and  _64
REMARK   28  A    between atoms: _64  and  _65
REMARK   29  A    between atoms: _65  and  _66
REMARK   30  A    between atoms: _66  and  _67
REMARK   31  A    between atoms: _71  and  _73
REMARK   32  A    between atoms: _73  and  _74
REMARK   33  A    between atoms: _73  and  _76
REMARK   34  A    between atoms: _76  and  _77
REMARK   35  A    between atoms: _79  and  _81
REMARK   36  A    between atoms: _81  and  _82
REMARK   37  A    between atoms: _81  and  _84
REMARK   38  A    between atoms: _84  and  _85
REMARK   39  A    between atoms: _90  and  _91
REMARK   40  A    between atoms: _93  and  _95
REMARK   41  A    between atoms: _95  and  _96
REMARK   42  A    between atoms: _95  and  _98
REMARK   43  A    between atoms: _98  and  _99
REMARK   44  A    between atoms: _104  and  _105
REMARK   45  A    between atoms: _107  and  _109
REMARK   46  A    between atoms: _109  and  _110
REMARK   47  A    between atoms: _113  and  _115
REMARK   48  A    between atoms: _115  and  _116
REMARK   49  A    between atoms: _115  and  _118
REMARK   50  A    between atoms: _118  and  _119
REMARK   51  A    between atoms: _119  and  _120
REMARK   52  A    between atoms: _120  and  _121
REMARK   53  A    between atoms: _121  and  _122
REMARK   54  A    between atoms: _126  and  _128
REMARK   55  A    between atoms: _128  and  _129
REMARK   56  A    between atoms: _128  and  _131
REMARK   57  A    between atoms: _131  and  _132
REMARK   58  A    between atoms: _135  and  _137
REMARK   59  A    between atoms: _137  and  _138
REMARK   60  A    between atoms: _137  and  _140
REMARK   61  A    between atoms: _140  and  _141
REMARK   62  A    between atoms: _143  and  _145
REMARK   63  A    between atoms: _145  and  _146
REMARK   64  A    between atoms: _145  and  _148
REMARK   65  A    between atoms: _148  and  _149
REMARK   66  A    between atoms: _149  and  _259
REMARK   67  A    between atoms: _150  and  _152
REMARK   68  A    between atoms: _152  and  _153
REMARK   69  A    between atoms: _152  and  _155
REMARK   70  A    between atoms: _155  and  _156
REMARK   71  A    between atoms: _156  and  _157
REMARK   72  A    between atoms: _162  and  _164
REMARK   73  A    between atoms: _164  and  _165
REMARK   74  A    between atoms: _167  and  _169
REMARK   75  A    between atoms: _169  and  _170
REMARK   76  A    between atoms: _169  and  _172
REMARK   77  A    between atoms: _172  and  _173
REMARK   78  A    between atoms: _176  and  _178
REMARK   79  A    between atoms: _178  and  _179
REMARK   80  A    between atoms: _178  and  _181
REMARK   81  A    between atoms: _181  and  _182
REMARK   82  A    between atoms: _184  and  _186
REMARK   83  A    between atoms: _186  and  _187
REMARK   84  A    between atoms: _189  and  _191
REMARK   85  A    between atoms: _191  and  _192
REMARK   86  A    between atoms: _194  and  _196
REMARK   87  A    between atoms: _196  and  _197
REMARK   88  A    between atoms: _196  and  _199
REMARK   89  A    between atoms: _199  and  _200
REMARK   90  A    between atoms: _203  and  _205
REMARK   91  A    between atoms: _205  and  _206
REMARK   92  A    between atoms: _205  and  _208
REMARK   93  A    between atoms: _211  and  _213
REMARK   94  A    between atoms: _213  and  _214
REMARK   95  A    between atoms: _213  and  _216
REMARK   96  A    between atoms: _216  and  _217
REMARK   97  A    between atoms: _219  and  _221
REMARK   98  A    between atoms: _221  and  _222
REMARK   99  A    between atoms: _221  and  _224
REMARK  100  A    between atoms: _224  and  _225
REMARK  101  A    between atoms: _235  and  _237
REMARK  102  A    between atoms: _237  and  _238
REMARK  103  A    between atoms: _240  and  _242
REMARK  104  A    between atoms: _242  and  _243
REMARK  105  A    between atoms: _242  and  _245
REMARK  106  A    between atoms: _245  and  _246
REMARK  107  A    between atoms: _248  and  _250
REMARK  108  A    between atoms: _250  and  _251
REMARK  109  A    between atoms: _253  and  _255
REMARK  110  A    between atoms: _255  and  _256
REMARK  111  A    between atoms: _255  and  _258
REMARK  112  A    between atoms: _258  and  _259
REMARK  113  A    between atoms: _260  and  _262
REMARK  114  A    between atoms: _262  and  _263
REMARK  115  A    between atoms: _266  and  _268
REMARK  116  A    between atoms: _268  and  _269
REMARK  117  A    between atoms: _268  and  _271
REMARK  118  A    between atoms: _271  and  _272
REMARK  119  A    between atoms: _272  and  _273
REMARK  120  A    between atoms: _278  and  _280
REMARK  121  A    between atoms: _280  and  _281
REMARK  122  A    between atoms: _280  and  _283
REMARK  123  A    between atoms: _283  and  _284
REMARK  124  A    between atoms: _284  and  _285
REMARK  125  A    between atoms: _285  and  _286
REMARK  126  A    between atoms: _286  and  _287
REMARK  127  A    between atoms: _292  and  _293
REMARK  128  A    between atoms: _298  and  _300
REMARK  129  A    between atoms: _300  and  _301
REMARK  130  A    between atoms: _303  and  _305
REMARK  131  A    between atoms: _305  and  _306
REMARK  132  A    between atoms: _305  and  _308
REMARK  133  A    between atoms: _311  and  _313
REMARK  134  A    between atoms: _313  and  _314
REMARK  135  A    between atoms: _313  and  _316
REMARK  136  A    between atoms: _316  and  _317
REMARK  137  A    between atoms: _322  and  _323
REMARK                            x       y       z     vdW  Elec       q    Type
REMARK                         _______ _______ _______ _____ _____    ______ ____
ROOT
ATOM      1  C   GLY A   3      -1.550 -18.244  21.182  0.00  0.00    +0.243 C 
ATOM      2  O   GLY A   3      -2.030 -19.108  21.904  0.00  0.00    -0.273 OA
ATOM      3  N   VAL A   4      -2.280 -17.439  20.387  0.00  0.00    -0.297 N 
ATOM      4  H   VAL A   4      -1.787 -16.730  19.807  0.00  0.00    +0.150 HD
ENDROOT
BRANCH   1   5
ATOM      5  CA  GLY A   3      -0.054 -18.050  21.015  0.00  0.00    +0.176 C 
BRANCH   5   8
ATOM      6  C   PRO A   2       0.474 -17.481  23.303  0.00  0.00    +0.241 C 
ATOM      7  O   PRO A   2      -0.277 -16.513  23.265  0.00  0.00    -0.273 OA
ATOM      8  N   GLY A   3       0.663 -18.271  22.255  0.00  0.00    -0.295 N 
ATOM      9  H   GLY A   3       1.336 -19.061  22.324  0.00  0.00    +0.150 HD
BRANCH   6  15
ATOM     10  C   LYS A   1       1.997 -15.733  25.320  0.00  0.00    +0.241 C 
ATOM     11  N   PRO A   2       1.182 -16.766  25.545  0.00  0.00    -0.272 N 
ATOM     12  CD  PRO A   2       0.284 -17.010  26.684  0.00  0.00    +0.094 C 
ATOM     13  CG  PRO A   2      -0.536 -18.220  26.224  0.00  0.00    +0.024 C 
ATOM     14  CB  PRO A   2       0.387 -19.011  25.334  0.00  0.00    +0.031 C 
ATOM     15  CA  PRO A   2       1.187 -17.930  24.573  0.00  0.00    +0.152 C 
ATOM     16  O   LYS A   1       2.671 -15.648  24.319  0.00  0.00    -0.273 OA
BRANCH  10  17
ATOM     17  CA  LYS A   1       1.986 -14.611  26.367  0.00  0.00    +0.145 C 
BRANCH  17  18
ATOM     18  N   LYS A   1       2.662 -15.089  27.577  0.00  0.00    -0.238 NA
ATOM     19  H   LYS A   1       3.595 -15.538  27.478  0.00  0.00    +0.142 HD
ENDBRANCH  17  18
BRANCH  17  20
ATOM     20  CB  LYS A   1       2.594 -13.326  25.833  0.00  0.00    +0.026 C 
BRANCH  20  21
ATOM     21  CG  LYS A   1       2.452 -12.122  26.821  0.00  0.00    -0.000 C 
BRANCH  21  22
ATOM     22  CD  LYS A   1       0.979 -11.730  26.946  0.00  0.00    -0.024 C 
BRANCH  22  23
ATOM     23  CE  LYS A   1       0.747 -10.695  28.048  0.00  0.00    -0.086 C 
BRANCH  23  24
ATOM     24  NZ  LYS A   1      -0.643 -10.150  28.003  0.00  0.00    +0.380 N 
ATOM     25  HZ1 LYS A   1      -0.765  -9.451  28.764  0.00  0.00    -0.089 HD
ATOM     26  HZ2 LYS A   1      -1.323 -10.926  28.131  0.00  0.00    -0.089 HD
ATOM     27  HZ3 LYS A   1      -0.806  -9.694  27.083  0.00  0.00    -0.089 HD
ENDBRANCH  23  24
ENDBRANCH  22  23
ENDBRANCH  21  22
ENDBRANCH  20  21
ENDBRANCH  17  20
ENDBRANCH  10  17
ENDBRANCH   6  15
ENDBRANCH   5   8
ENDBRANCH   1   5
BRANCH   3  28
ATOM     28  CA  VAL A   4      -3.763 -17.522  20.304  0.00  0.00    +0.149 C 
BRANCH  28  29
ATOM     29  C   VAL A   4      -4.140 -17.973  18.895  0.00  0.00    +0.241 C 
ATOM     30  N   TYR A   5      -5.124 -18.871  18.854  0.00  0.00    -0.298 N 
ATOM     31  H   TYR A   5      -5.666 -19.045  19.724  0.00  0.00    +0.150 HD
ATOM     32  O   VAL A   4      -3.564 -17.516  17.867  0.00  0.00    -0.273 OA
BRANCH  30  33
ATOM     33  CA  TYR A   5      -5.491 -19.640  17.632  0.00  0.00    +0.141 C 
BRANCH  33  34
ATOM     34  C   TYR A   5      -6.995 -19.622  17.427  0.00  0.00    +0.227 C 
ATOM     35  O   TYR A   5      -7.758 -19.665  18.394  0.00  0.00    -0.286 OA
ENDBRANCH  33  34
BRANCH  33  36
ATOM     36  CB  TYR A   5      -4.946 -21.126  17.828  0.00  0.00    +0.054 C 
BRANCH  36  37
ATOM     37  CG  TYR A   5      -3.439 -21.114  17.985  0.00  0.00    -0.020 A 
ATOM     38  CD2 TYR A   5      -2.815 -21.127  19.208  0.00  0.00    -0.001 A 
ATOM     39  CE2 TYR A   5      -1.459 -21.035  19.338  0.00  0.00    +0.036 A 
ATOM     40  CZ  TYR A   5      -0.707 -20.993  18.173  0.00  0.00    +0.134 A 
ATOM     41  CE1 TYR A   5      -1.301 -21.047  16.936  0.00  0.00    +0.036 A 
ATOM     42  CD1 TYR A   5      -2.669 -21.088  16.855  0.00  0.00    -0.001 A 
BRANCH  40  43
ATOM     43  OH  TYR A   5       0.704 -20.930  18.230  0.00  0.00    -0.506 OA
ATOM     44  HH  TYR A   5       1.050 -21.727  18.704  0.00  0.00    +0.292 HD
ENDBRANCH  40  43
ENDBRANCH  36  37
ENDBRANCH  33  36
ENDBRANCH  30  33
ENDBRANCH  28  29
BRANCH  28  45
ATOM     45  CB  VAL A   4      -4.444 -16.157  20.659  0.00  0.00    +0.027 C 
ATOM     46  CG2 VAL A   4      -3.832 -15.606  21.966  0.00  0.00    +0.002 C 
ATOM     47  CG1 VAL A   4      -5.958 -16.363  20.795  0.00  0.00    +0.002 C 
ENDBRANCH  28  45
ENDBRANCH   3  28
TORSDOF 18
REMARK  Name = ../refined-set-2016/4abf/4abf_pocket.pdb
REMARK  137 active torsions:
REMARK  status: ('A' for Active; 'I' for Inactive)
REMARK    1  A    between atoms: _1  and  _3
REMARK    2  A    between atoms: _3  and  _4
REMARK    3  A    between atoms: _3  and  _6
REMARK    4  A    between atoms: _9  and  _11
REMARK    5  A    between atoms: _11  and  _12
REMARK    6  A    between atoms: _11  and  _14
REMARK    7  A    between atoms: _14  and  _15
REMARK    8  A    between atoms: _20  and  _22
REMARK    9  A    between atoms: _22  and  _23
REMARK   10  A    between atoms: _22  and  _25
REMARK   11  A    between atoms: _25  and  _26
REMARK   12  A    between atoms: _29  and  _31
REMARK   13  A    between atoms: _31  and  _32
REMARK   14  A    between atoms: _31  and  _34
REMARK   15  A    between atoms: _34  and  _35
REMARK   16  A    between atoms: _38  and  _40
REMARK   17  A    between atoms: _40  and  _41
REMARK   18  A    between atoms: _40  and  _43
REMARK   19  A    between atoms: _43  and  _44
REMARK   20  A    between atoms: _47  and  _49
REMARK   21  A    between atoms: _49  and  _50
REMARK   22  A    between atoms: _49  and  _52
REMARK   23  A    between atoms: _52  and  _53
REMARK   24  A    between atoms: _58  and  _60
REMARK   25  A    between atoms: _60  and  _61
REMARK   26  A    between atoms: _60  and  _63
REMARK   27  A    between atoms: _63  and  _64
REMARK   28  A    between atoms: _64  and  _65
REMARK   29  A    between atoms: _65  and  _66
REMARK   30  A    between atoms: _66  and  _67
REMARK   31  A    between atoms: _71  and  _73
REMARK   32  A    between atoms: _73  and  _74
REMARK   33  A    between atoms: _73  and  _76
REMARK   34  A    between atoms: _76  and  _77
REMARK   35  A    between atoms: _79  and  _81
REMARK   36  A    between atoms: _81  and  _82
REMARK   37  A    between atoms: _81  and  _84
REMARK   38  A    between atoms: _84  and  _85
REMARK   39  A    between atoms: _90  and  _91
REMARK   40  A    between atoms: _93  and  _95
REMARK   41  A    between atoms: _95  and  _96
REMARK   42  A    between atoms: _95  and  _98
REMARK   43  A    between atoms: _98  and  _99
REMARK   44  A    between atoms: _104  and  _105
REMARK   45  A    between atoms: _107  and  _109
REMARK   46  A    between atoms: _109  and  _110
REMARK   47  A    between atoms: _113  and  _115
REMARK   48  A    between atoms: _115  and  _116
REMARK   49  A    between atoms: _115  and  _118
REMARK   50  A    between atoms: _118  and  _119
REMARK   51  A    between atoms: _119  and  _120
REMARK   52  A    between atoms: _120  and  _121
REMARK   53  A    between atoms: _121  and  _122
REMARK   54  A    between atoms: _126  and  _128
REMARK   55  A    between atoms: _128  and  _129
REMARK   56  A    between atoms: _128  and  _131
REMARK   57  A    between atoms: _131  and  _132
REMARK   58  A    between atoms: _135  and  _137
REMARK   59  A    between atoms: _137  and  _138
REMARK   60  A    between atoms: _137  and  _140
REMARK   61  A    between atoms: _140  and  _141
REMARK   62  A    between atoms: _143  and  _145
REMARK   63  A    between atoms: _145  and  _146
REMARK   64  A    between atoms: _145  and  _148
REMARK   65  A    between atoms: _148  and  _149
REMARK   66  A    between atoms: _149  and  _259
REMARK   67  A    between atoms: _150  and  _152
REMARK   68  A    between atoms: _152  and  _153
REMARK   69  A    between atoms: _152  and  _155
REMARK   70  A    between atoms: _155  and  _156
REMARK   71  A    between atoms: _156  and  _157
REMARK   72  A    between atoms: _162  and  _164
REMARK   73  A    between atoms: _164  and  _165
REMARK   74  A    between atoms: _167  and  _169
REMARK   75  A    between atoms: _169  and  _170
REMARK   76  A    between atoms: _169  and  _172
REMARK   77  A    between atoms: _172  and  _173
REMARK   78  A    between atoms: _176  and  _178
REMARK   79  A    between atoms: _178  and  _179
REMARK   80  A    between atoms: _178  and  _181
REMARK   81  A    between atoms: _181  and  _182
REMARK   82  A    between atoms: _184  and  _186
REMARK   83  A    between atoms: _186  and  _187
REMARK   84  A    between atoms: _189  and  _191
REMARK   85  A    between atoms: _191  and  _192
REMARK   86  A    between atoms: _194  and  _196
REMARK   87  A    between atoms: _196  and  _197
REMARK   88  A    between atoms: _196  and  _199
REMARK   89  A    between atoms: _199  and  _200
REMARK   90  A    between atoms: _203  and  _205
REMARK   91  A    between atoms: _205  and  _206
REMARK   92  A    between atoms: _205  and  _208
REMARK   93  A    between atoms: _211  and  _213
REMARK   94  A    between atoms: _213  and  _214
REMARK   95  A    between atoms: _213  and  _216
REMARK   96  A    between atoms: _216  and  _217
REMARK   97  A    between atoms: _219  and  _221
REMARK   98  A    between atoms: _221  and  _222
REMARK   99  A    between atoms: _221  and  _224
REMARK  100  A    between atoms: _224  and  _225
REMARK  101  A    between atoms: _235  and  _237
REMARK  102  A    between atoms: _237  and  _238
REMARK  103  A    between atoms: _240  and  _242
REMARK  104  A    between atoms: _242  and  _243
REMARK  105  A    between atoms: _242  and  _245
REMARK  106  A    between atoms: _245  and  _246
REMARK  107  A    between atoms: _248  and  _250
REMARK  108  A    between atoms: _250  and  _251
REMARK  109  A    between atoms: _253  and  _255
REMARK  110  A    between atoms: _255  and  _256
REMARK  111  A    between atoms: _255  and  _258
REMARK  112  A    between atoms: _258  and  _259
REMARK  113  A    between atoms: _260  and  _262
REMARK  114  A    between atoms: _262  and  _263
REMARK  115  A    between atoms: _266  and  _268
REMARK  116  A    between atoms: _268  and  _269
REMARK  117  A    between atoms: _268  and  _271
REMARK  118  A    between atoms: _271  and  _272
REMARK  119  A    between atoms: _272  and  _273
REMARK  120  A    between atoms: _278  and  _280
REMARK  121  A    between atoms: _280  and  _281
REMARK  122  A    between atoms: _280  and  _283
REMARK  123  A    between atoms: _283  and  _284
REMARK  124  A    between atoms: _284  and  _285
REMARK  125  A    between atoms: _285  and  _286
REMARK  126  A    between atoms: _286  and  _287
REMARK  127  A    between atoms: _292  and  _293
REMARK  128  A    between atoms: _298  and  _300
REMARK  129  A    between atoms: _300  and  _301
REMARK  130  A    between atoms: _303  and  _305
REMARK  131  A    between atoms: _305  and  _306
REMARK  132  A    between atoms: _305  and  _308
REMARK  133  A    between atoms: _311  and  _313
REMARK  134  A    between atoms: _313  and  _314
REMARK  135  A    between atoms: _313  and  _316
REMARK  136  A    between atoms: _316  and  _317
REMARK  137  A    between atoms: _322  and  _323
REMARK                            x       y       z     vdW  Elec       q    Type
REMARK                         _______ _______ _______ _____ _____    ______ ____
ROOT
ATOM      1  O   HOH     1       1.837 -14.306   8.652  0.00  0.00    +0.000 OA
ENDROOT
TORSDOF 0
REMARK  Name = ../refined-set-2016/4abf/4abf_pocket.pdb
REMARK  137 active torsions:
REMARK  status: ('A' for Active; 'I' for Inactive)
REMARK    1  A    between atoms: _1  and  _3
REMARK    2  A    between atoms: _3  and  _4
REMARK    3  A    between atoms: _3  and  _6
REMARK    4  A    between atoms: _9  and  _11
REMARK    5  A    between atoms: _11  and  _12
REMARK    6  A    between atoms: _11  and  _14
REMARK    7  A    between atoms: _14  and  _15
REMARK    8  A    between atoms: _20  and  _22
REMARK    9  A    between atoms: _22  and  _23
REMARK   10  A    between atoms: _22  and  _25
REMARK   11  A    between atoms: _25  and  _26
REMARK   12  A    between atoms: _29  and  _31
REMARK   13  A    between atoms: _31  and  _32
REMARK   14  A    between atoms: _31  and  _34
REMARK   15  A    between atoms: _34  and  _35
REMARK   16  A    between atoms: _38  and  _40
REMARK   17  A    between atoms: _40  and  _41
REMARK   18  A    between atoms: _40  and  _43
REMARK   19  A    between atoms: _43  and  _44
REMARK   20  A    between atoms: _47  and  _49
REMARK   21  A    between atoms: _49  and  _50
REMARK   22  A    between atoms: _49  and  _52
REMARK   23  A    between atoms: _52  and  _53
REMARK   24  A    between atoms: _58  and  _60
REMARK   25  A    between atoms: _60  and  _61
REMARK   26  A    between atoms: _60  and  _63
REMARK   27  A    between atoms: _63  and  _64
REMARK   28  A    between atoms: _64  and  _65
REMARK   29  A    between atoms: _65  and  _66
REMARK   30  A    between atoms: _66  and  _67
REMARK   31  A    between atoms: _71  and  _73
REMARK   32  A    between atoms: _73  and  _74
REMARK   33  A    between atoms: _73  and  _76
REMARK   34  A    between atoms: _76  and  _77
REMARK   35  A    between atoms: _79  and  _81
REMARK   36  A    between atoms: _81  and  _82
REMARK   37  A    between atoms: _81  and  _84
REMARK   38  A    between atoms: _84  and  _85
REMARK   39  A    between atoms: _90  and  _91
REMARK   40  A    between atoms: _93  and  _95
REMARK   41  A    between atoms: _95  and  _96
REMARK   42  A    between atoms: _95  and  _98
REMARK   43  A    between atoms: _98  and  _99
REMARK   44  A    between atoms: _104  and  _105
REMARK   45  A    between atoms: _107  and  _109
REMARK   46  A    between atoms: _109  and  _110
REMARK   47  A    between atoms: _113  and  _115
REMARK   48  A    between atoms: _115  and  _116
REMARK   49  A    between atoms: _115  and  _118
REMARK   50  A    between atoms: _118  and  _119
REMARK   51  A    between atoms: _119  and  _120
REMARK   52  A    between atoms: _120  and  _121
REMARK   53  A    between atoms: _121  and  _122
REMARK   54  A    between atoms: _126  and  _128
REMARK   55  A    between atoms: _128  and  _129
REMARK   56  A    between atoms: _128  and  _131
REMARK   57  A    between atoms: _131  and  _132
REMARK   58  A    between atoms: _135  and  _137
REMARK   59  A    between atoms: _137  and  _138
REMARK   60  A    between atoms: _137  and  _140
REMARK   61  A    between atoms: _140  and  _141
REMARK   62  A    between atoms: _143  and  _145
REMARK   63  A    between atoms: _145  and  _146
REMARK   64  A    between atoms: _145  and  _148
REMARK   65  A    between atoms: _148  and  _149
REMARK   66  A    between atoms: _149  and  _259
REMARK   67  A    between atoms: _150  and  _152
REMARK   68  A    between atoms: _152  and  _153
REMARK   69  A    between atoms: _152  and  _155
REMARK   70  A    between atoms: _155  and  _156
REMARK   71  A    between atoms: _156  and  _157
REMARK   72  A    between atoms: _162  and  _164
REMARK   73  A    between atoms: _164  and  _165
REMARK   74  A    between atoms: _167  and  _169
REMARK   75  A    between atoms: _169  and  _170
REMARK   76  A    between atoms: _169  and  _172
REMARK   77  A    between atoms: _172  and  _173
REMARK   78  A    between atoms: _176  and  _178
REMARK   79  A    between atoms: _178  and  _179
REMARK   80  A    between atoms: _178  and  _181
REMARK   81  A    between atoms: _181  and  _182
REMARK   82  A    between atoms: _184  and  _186
REMARK   83  A    between atoms: _186  and  _187
REMARK   84  A    between atoms: _189  and  _191
REMARK   85  A    between atoms: _191  and  _192
REMARK   86  A    between atoms: _194  and  _196
REMARK   87  A    between atoms: _196  and  _197
REMARK   88  A    between atoms: _196  and  _199
REMARK   89  A    between atoms: _199  and  _200
REMARK   90  A    between atoms: _203  and  _205
REMARK   91  A    between atoms: _205  and  _206
REMARK   92  A    between atoms: _205  and  _208
REMARK   93  A    between atoms: _211  and  _213
REMARK   94  A    between atoms: _213  and  _214
REMARK   95  A    between atoms: _213  and  _216
REMARK   96  A    between atoms: _216  and  _217
REMARK   97  A    between atoms: _219  and  _221
REMARK   98  A    between atoms: _221  and  _222
REMARK   99  A    between atoms: _221  and  _224
REMARK  100  A    between atoms: _224  and  _225
REMARK  101  A    between atoms: _235  and  _237
REMARK  102  A    between atoms: _237  and  _238
REMARK  103  A    between atoms: _240  and  _242
REMARK  104  A    between atoms: _242  and  _243
REMARK  105  A    between atoms: _242  and  _245
REMARK  106  A    between atoms: _245  and  _246
REMARK  107  A    between atoms: _248  and  _250
REMARK  108  A    between atoms: _250  and  _251
REMARK  109  A    between atoms: _253  and  _255
REMARK  110  A    between atoms: _255  and  _256
REMARK  111  A    between atoms: _255  and  _258
REMARK  112  A    between atoms: _258  and  _259
REMARK  113  A    between atoms: _260  and  _262
REMARK  114  A    between atoms: _262  and  _263
REMARK  115  A    between atoms: _266  and  _268
REMARK  116  A    between atoms: _268  and  _269
REMARK  117  A    between atoms: _268  and  _271
REMARK  118  A    between atoms: _271  and  _272
REMARK  119  A    between atoms: _272  and  _273
REMARK  120  A    between atoms: _278  and  _280
REMARK  121  A    between atoms: _280  and  _281
REMARK  122  A    between atoms: _280  and  _283
REMARK  123  A    between atoms: _283  and  _284
REMARK  124  A    between atoms: _284  and  _285
REMARK  125  A    between atoms: _285  and  _286
REMARK  126  A    between atoms: _286  and  _287
REMARK  127  A    between atoms: _292  and  _293
REMARK  128  A    between atoms: _298  and  _300
REMARK  129  A    between atoms: _300  and  _301
REMARK  130  A    between atoms: _303  and  _305
REMARK  131  A    between atoms: _305  and  _306
REMARK  132  A    between atoms: _305  and  _308
REMARK  133  A    between atoms: _311  and  _313
REMARK  134  A    between atoms: _313  and  _314
REMARK  135  A    between atoms: _313  and  _316
REMARK  136  A    between atoms: _316  and  _317
REMARK  137  A    between atoms: _322  and  _323
REMARK                            x       y       z     vdW  Elec       q    Type
REMARK                         _______ _______ _______ _____ _____    ______ ____
ROOT
ATOM      1  O   HOH     1      -0.840 -10.450   7.447  0.00  0.00    +0.000 OA
ENDROOT
TORSDOF 0
REMARK  Name = ../refined-set-2016/4abf/4abf_pocket.pdb
REMARK  137 active torsions:
REMARK  status: ('A' for Active; 'I' for Inactive)
REMARK    1  A    between atoms: _1  and  _3
REMARK    2  A    between atoms: _3  and  _4
REMARK    3  A    between atoms: _3  and  _6
REMARK    4  A    between atoms: _9  and  _11
REMARK    5  A    between atoms: _11  and  _12
REMARK    6  A    between atoms: _11  and  _14
REMARK    7  A    between atoms: _14  and  _15
REMARK    8  A    between atoms: _20  and  _22
REMARK    9  A    between atoms: _22  and  _23
REMARK   10  A    between atoms: _22  and  _25
REMARK   11  A    between atoms: _25  and  _26
REMARK   12  A    between atoms: _29  and  _31
REMARK   13  A    between atoms: _31  and  _32
REMARK   14  A    between atoms: _31  and  _34
REMARK   15  A    between atoms: _34  and  _35
REMARK   16  A    between atoms: _38  and  _40
REMARK   17  A    between atoms: _40  and  _41
REMARK   18  A    between atoms: _40  and  _43
REMARK   19  A    between atoms: _43  and  _44
REMARK   20  A    between atoms: _47  and  _49
REMARK   21  A    between atoms: _49  and  _50
REMARK   22  A    between atoms: _49  and  _52
REMARK   23  A    between atoms: _52  and  _53
REMARK   24  A    between atoms: _58  and  _60
REMARK   25  A    between atoms: _60  and  _61
REMARK   26  A    between atoms: _60  and  _63
REMARK   27  A    between atoms: _63  and  _64
REMARK   28  A    between atoms: _64  and  _65
REMARK   29  A    between atoms: _65  and  _66
REMARK   30  A    between atoms: _66  and  _67
REMARK   31  A    between atoms: _71  and  _73
REMARK   32  A    between atoms: _73  and  _74
REMARK   33  A    between atoms: _73  and  _76
REMARK   34  A    between atoms: _76  and  _77
REMARK   35  A    between atoms: _79  and  _81
REMARK   36  A    between atoms: _81  and  _82
REMARK   37  A    between atoms: _81  and  _84
REMARK   38  A    between atoms: _84  and  _85
REMARK   39  A    between atoms: _90  and  _91
REMARK   40  A    between atoms: _93  and  _95
REMARK   41  A    between atoms: _95  and  _96
REMARK   42  A    between atoms: _95  and  _98
REMARK   43  A    between atoms: _98  and  _99
REMARK   44  A    between atoms: _104  and  _105
REMARK   45  A    between atoms: _107  and  _109
REMARK   46  A    between atoms: _109  and  _110
REMARK   47  A    between atoms: _113  and  _115
REMARK   48  A    between atoms: _115  and  _116
REMARK   49  A    between atoms: _115  and  _118
REMARK   50  A    between atoms: _118  and  _119
REMARK   51  A    between atoms: _119  and  _120
REMARK   52  A    between atoms: _120  and  _121
REMARK   53  A    between atoms: _121  and  _122
REMARK   54  A    between atoms: _126  and  _128
REMARK   55  A    between atoms: _128  and  _129
REMARK   56  A    between atoms: _128  and  _131
REMARK   57  A    between atoms: _131  and  _132
REMARK   58  A    between atoms: _135  and  _137
REMARK   59  A    between atoms: _137  and  _138
REMARK   60  A    between atoms: _137  and  _140
REMARK   61  A    between atoms: _140  and  _141
REMARK   62  A    between atoms: _143  and  _145
REMARK   63  A    between atoms: _145  and  _146
REMARK   64  A    between atoms: _145  and  _148
REMARK   65  A    between atoms: _148  and  _149
REMARK   66  A    between atoms: _149  and  _259
REMARK   67  A    between atoms: _150  and  _152
REMARK   68  A    between atoms: _152  and  _153
REMARK   69  A    between atoms: _152  and  _155
REMARK   70  A    between atoms: _155  and  _156
REMARK   71  A    between atoms: _156  and  _157
REMARK   72  A    between atoms: _162  and  _164
REMARK   73  A    between atoms: _164  and  _165
REMARK   74  A    between atoms: _167  and  _169
REMARK   75  A    between atoms: _169  and  _170
REMARK   76  A    between atoms: _169  and  _172
REMARK   77  A    between atoms: _172  and  _173
REMARK   78  A    between atoms: _176  and  _178
REMARK   79  A    between atoms: _178  and  _179
REMARK   80  A    between atoms: _178  and  _181
REMARK   81  A    between atoms: _181  and  _182
REMARK   82  A    between atoms: _184  and  _186
REMARK   83  A    between atoms: _186  and  _187
REMARK   84  A    between atoms: _189  and  _191
REMARK   85  A    between atoms: _191  and  _192
REMARK   86  A    between atoms: _194  and  _196
REMARK   87  A    between atoms: _196  and  _197
REMARK   88  A    between atoms: _196  and  _199
REMARK   89  A    between atoms: _199  and  _200
REMARK   90  A    between atoms: _203  and  _205
REMARK   91  A    between atoms: _205  and  _206
REMARK   92  A    between atoms: _205  and  _208
REMARK   93  A    between atoms: _211  and  _213
REMARK   94  A    between atoms: _213  and  _214
REMARK   95  A    between atoms: _213  and  _216
REMARK   96  A    between atoms: _216  and  _217
REMARK   97  A    between atoms: _219  and  _221
REMARK   98  A    between atoms: _221  and  _222
REMARK   99  A    between atoms: _221  and  _224
REMARK  100  A    between atoms: _224  and  _225
REMARK  101  A    between atoms: _235  and  _237
REMARK  102  A    between atoms: _237  and  _238
REMARK  103  A    between atoms: _240  and  _242
REMARK  104  A    between atoms: _242  and  _243
REMARK  105  A    between atoms: _242  and  _245
REMARK  106  A    between atoms: _245  and  _246
REMARK  107  A    between atoms: _248  and  _250
REMARK  108  A    between atoms: _250  and  _251
REMARK  109  A    between atoms: _253  and  _255
REMARK  110  A    between atoms: _255  and  _256
REMARK  111  A    between atoms: _255  and  _258
REMARK  112  A    between atoms: _258  and  _259
REMARK  113  A    between atoms: _260  and  _262
REMARK  114  A    between atoms: _262  and  _263
REMARK  115  A    between atoms: _266  and  _268
REMARK  116  A    between atoms: _268  and  _269
REMARK  117  A    between atoms: _268  and  _271
REMARK  118  A    between atoms: _271  and  _272
REMARK  119  A    between atoms: _272  and  _273
REMARK  120  A    between atoms: _278  and  _280
REMARK  121  A    between atoms: _280  and  _281
REMARK  122  A    between atoms: _280  and  _283
REMARK  123  A    between atoms: _283  and  _284
REMARK  124  A    between atoms: _284  and  _285
REMARK  125  A    between atoms: _285  and  _286
REMARK  126  A    between atoms: _286  and  _287
REMARK  127  A    between atoms: _292  and  _293
REMARK  128  A    between atoms: _298  and  _300
REMARK  129  A    between atoms: _300  and  _301
REMARK  130  A    between atoms: _303  and  _305
REMARK  131  A    between atoms: _305  and  _306
REMARK  132  A    between atoms: _305  and  _308
REMARK  133  A    between atoms: _311  and  _313
REMARK  134  A    between atoms: _313  and  _314
REMARK  135  A    between atoms: _313  and  _316
REMARK  136  A    between atoms: _316  and  _317
REMARK  137  A    between atoms: _322  and  _323
REMARK                            x       y       z     vdW  Elec       q    Type
REMARK                         _______ _______ _______ _____ _____    ______ ____
ROOT
ATOM      1  O   HOH     1      -0.079 -10.996  11.803  0.00  0.00    +0.000 OA
ENDROOT
TORSDOF 0
REMARK  Name = ../refined-set-2016/4abf/4abf_pocket.pdb
REMARK  137 active torsions:
REMARK  status: ('A' for Active; 'I' for Inactive)
REMARK    1  A    between atoms: _1  and  _3
REMARK    2  A    between atoms: _3  and  _4
REMARK    3  A    between atoms: _3  and  _6
REMARK    4  A    between atoms: _9  and  _11
REMARK    5  A    between atoms: _11  and  _12
REMARK    6  A    between atoms: _11  and  _14
REMARK    7  A    between atoms: _14  and  _15
REMARK    8  A    between atoms: _20  and  _22
REMARK    9  A    between atoms: _22  and  _23
REMARK   10  A    between atoms: _22  and  _25
REMARK   11  A    between atoms: _25  and  _26
REMARK   12  A    between atoms: _29  and  _31
REMARK   13  A    between atoms: _31  and  _32
REMARK   14  A    between atoms: _31  and  _34
REMARK   15  A    between atoms: _34  and  _35
REMARK   16  A    between atoms: _38  and  _40
REMARK   17  A    between atoms: _40  and  _41
REMARK   18  A    between atoms: _40  and  _43
REMARK   19  A    between atoms: _43  and  _44
REMARK   20  A    between atoms: _47  and  _49
REMARK   21  A    between atoms: _49  and  _50
REMARK   22  A    between atoms: _49  and  _52
REMARK   23  A    between atoms: _52  and  _53
REMARK   24  A    between atoms: _58  and  _60
REMARK   25  A    between atoms: _60  and  _61
REMARK   26  A    between atoms: _60  and  _63
REMARK   27  A    between atoms: _63  and  _64
REMARK   28  A    between atoms: _64  and  _65
REMARK   29  A    between atoms: _65  and  _66
REMARK   30  A    between atoms: _66  and  _67
REMARK   31  A    between atoms: _71  and  _73
REMARK   32  A    between atoms: _73  and  _74
REMARK   33  A    between atoms: _73  and  _76
REMARK   34  A    between atoms: _76  and  _77
REMARK   35  A    between atoms: _79  and  _81
REMARK   36  A    between atoms: _81  and  _82
REMARK   37  A    between atoms: _81  and  _84
REMARK   38  A    between atoms: _84  and  _85
REMARK   39  A    between atoms: _90  and  _91
REMARK   40  A    between atoms: _93  and  _95
REMARK   41  A    between atoms: _95  and  _96
REMARK   42  A    between atoms: _95  and  _98
REMARK   43  A    between atoms: _98  and  _99
REMARK   44  A    between atoms: _104  and  _105
REMARK   45  A    between atoms: _107  and  _109
REMARK   46  A    between atoms: _109  and  _110
REMARK   47  A    between atoms: _113  and  _115
REMARK   48  A    between atoms: _115  and  _116
REMARK   49  A    between atoms: _115  and  _118
REMARK   50  A    between atoms: _118  and  _119
REMARK   51  A    between atoms: _119  and  _120
REMARK   52  A    between atoms: _120  and  _121
REMARK   53  A    between atoms: _121  and  _122
REMARK   54  A    between atoms: _126  and  _128
REMARK   55  A    between atoms: _128  and  _129
REMARK   56  A    between atoms: _128  and  _131
REMARK   57  A    between atoms: _131  and  _132
REMARK   58  A    between atoms: _135  and  _137
REMARK   59  A    between atoms: _137  and  _138
REMARK   60  A    between atoms: _137  and  _140
REMARK   61  A    between atoms: _140  and  _141
REMARK   62  A    between atoms: _143  and  _145
REMARK   63  A    between atoms: _145  and  _146
REMARK   64  A    between atoms: _145  and  _148
REMARK   65  A    between atoms: _148  and  _149
REMARK   66  A    between atoms: _149  and  _259
REMARK   67  A    between atoms: _150  and  _152
REMARK   68  A    between atoms: _152  and  _153
REMARK   69  A    between atoms: _152  and  _155
REMARK   70  A    between atoms: _155  and  _156
REMARK   71  A    between atoms: _156  and  _157
REMARK   72  A    between atoms: _162  and  _164
REMARK   73  A    between atoms: _164  and  _165
REMARK   74  A    between atoms: _167  and  _169
REMARK   75  A    between atoms: _169  and  _170
REMARK   76  A    between atoms: _169  and  _172
REMARK   77  A    between atoms: _172  and  _173
REMARK   78  A    between atoms: _176  and  _178
REMARK   79  A    between atoms: _178  and  _179
REMARK   80  A    between atoms: _178  and  _181
REMARK   81  A    between atoms: _181  and  _182
REMARK   82  A    between atoms: _184  and  _186
REMARK   83  A    between atoms: _186  and  _187
REMARK   84  A    between atoms: _189  and  _191
REMARK   85  A    between atoms: _191  and  _192
REMARK   86  A    between atoms: _194  and  _196
REMARK   87  A    between atoms: _196  and  _197
REMARK   88  A    between atoms: _196  and  _199
REMARK   89  A    between atoms: _199  and  _200
REMARK   90  A    between atoms: _203  and  _205
REMARK   91  A    between atoms: _205  and  _206
REMARK   92  A    between atoms: _205  and  _208
REMARK   93  A    between atoms: _211  and  _213
REMARK   94  A    between atoms: _213  and  _214
REMARK   95  A    between atoms: _213  and  _216
REMARK   96  A    between atoms: _216  and  _217
REMARK   97  A    between atoms: _219  and  _221
REMARK   98  A    between atoms: _221  and  _222
REMARK   99  A    between atoms: _221  and  _224
REMARK  100  A    between atoms: _224  and  _225
REMARK  101  A    between atoms: _235  and  _237
REMARK  102  A    between atoms: _237  and  _238
REMARK  103  A    between atoms: _240  and  _242
REMARK  104  A    between atoms: _242  and  _243
REMARK  105  A    between atoms: _242  and  _245
REMARK  106  A    between atoms: _245  and  _246
REMARK  107  A    between atoms: _248  and  _250
REMARK  108  A    between atoms: _250  and  _251
REMARK  109  A    between atoms: _253  and  _255
REMARK  110  A    between atoms: _255  and  _256
REMARK  111  A    between atoms: _255  and  _258
REMARK  112  A    between atoms: _258  and  _259
REMARK  113  A    between atoms: _260  and  _262
REMARK  114  A    between atoms: _262  and  _263
REMARK  115  A    between atoms: _266  and  _268
REMARK  116  A    between atoms: _268  and  _269
REMARK  117  A    between atoms: _268  and  _271
REMARK  118  A    between atoms: _271  and  _272
REMARK  119  A    between atoms: _272  and  _273
REMARK  120  A    between atoms: _278  and  _280
REMARK  121  A    between atoms: _280  and  _281
REMARK  122  A    between atoms: _280  and  _283
REMARK  123  A    between atoms: _283  and  _284
REMARK  124  A    between atoms: _284  and  _285
REMARK  125  A    between atoms: _285  and  _286
REMARK  126  A    between atoms: _286  and  _287
REMARK  127  A    between atoms: _292  and  _293
REMARK  128  A    between atoms: _298  and  _300
REMARK  129  A    between atoms: _300  and  _301
REMARK  130  A    between atoms: _303  and  _305
REMARK  131  A    between atoms: _305  and  _306
REMARK  132  A    between atoms: _305  and  _308
REMARK  133  A    between atoms: _311  and  _313
REMARK  134  A    between atoms: _313  and  _314
REMARK  135  A    between atoms: _313  and  _316
REMARK  136  A    between atoms: _316  and  _317
REMARK  137  A    between atoms: _322  and  _323
REMARK                            x       y       z     vdW  Elec       q    Type
REMARK                         _______ _______ _______ _____ _____    ______ ____
ROOT
ATOM      1  O   HOH     1       8.450 -10.999  20.473  0.00  0.00    +0.000 OA
ENDROOT
TORSDOF 0
REMARK  Name = ../refined-set-2016/4abf/4abf_pocket.pdb
REMARK  137 active torsions:
REMARK  status: ('A' for Active; 'I' for Inactive)
REMARK    1  A    between atoms: _1  and  _3
REMARK    2  A    between atoms: _3  and  _4
REMARK    3  A    between atoms: _3  and  _6
REMARK    4  A    between atoms: _9  and  _11
REMARK    5  A    between atoms: _11  and  _12
REMARK    6  A    between atoms: _11  and  _14
REMARK    7  A    between atoms: _14  and  _15
REMARK    8  A    between atoms: _20  and  _22
REMARK    9  A    between atoms: _22  and  _23
REMARK   10  A    between atoms: _22  and  _25
REMARK   11  A    between atoms: _25  and  _26
REMARK   12  A    between atoms: _29  and  _31
REMARK   13  A    between atoms: _31  and  _32
REMARK   14  A    between atoms: _31  and  _34
REMARK   15  A    between atoms: _34  and  _35
REMARK   16  A    between atoms: _38  and  _40
REMARK   17  A    between atoms: _40  and  _41
REMARK   18  A    between atoms: _40  and  _43
REMARK   19  A    between atoms: _43  and  _44
REMARK   20  A    between atoms: _47  and  _49
REMARK   21  A    between atoms: _49  and  _50
REMARK   22  A    between atoms: _49  and  _52
REMARK   23  A    between atoms: _52  and  _53
REMARK   24  A    between atoms: _58  and  _60
REMARK   25  A    between atoms: _60  and  _61
REMARK   26  A    between atoms: _60  and  _63
REMARK   27  A    between atoms: _63  and  _64
REMARK   28  A    between atoms: _64  and  _65
REMARK   29  A    between atoms: _65  and  _66
REMARK   30  A    between atoms: _66  and  _67
REMARK   31  A    between atoms: _71  and  _73
REMARK   32  A    between atoms: _73  and  _74
REMARK   33  A    between atoms: _73  and  _76
REMARK   34  A    between atoms: _76  and  _77
REMARK   35  A    between atoms: _79  and  _81
REMARK   36  A    between atoms: _81  and  _82
REMARK   37  A    between atoms: _81  and  _84
REMARK   38  A    between atoms: _84  and  _85
REMARK   39  A    between atoms: _90  and  _91
REMARK   40  A    between atoms: _93  and  _95
REMARK   41  A    between atoms: _95  and  _96
REMARK   42  A    between atoms: _95  and  _98
REMARK   43  A    between atoms: _98  and  _99
REMARK   44  A    between atoms: _104  and  _105
REMARK   45  A    between atoms: _107  and  _109
REMARK   46  A    between atoms: _109  and  _110
REMARK   47  A    between atoms: _113  and  _115
REMARK   48  A    between atoms: _115  and  _116
REMARK   49  A    between atoms: _115  and  _118
REMARK   50  A    between atoms: _118  and  _119
REMARK   51  A    between atoms: _119  and  _120
REMARK   52  A    between atoms: _120  and  _121
REMARK   53  A    between atoms: _121  and  _122
REMARK   54  A    between atoms: _126  and  _128
REMARK   55  A    between atoms: _128  and  _129
REMARK   56  A    between atoms: _128  and  _131
REMARK   57  A    between atoms: _131  and  _132
REMARK   58  A    between atoms: _135  and  _137
REMARK   59  A    between atoms: _137  and  _138
REMARK   60  A    between atoms: _137  and  _140
REMARK   61  A    between atoms: _140  and  _141
REMARK   62  A    between atoms: _143  and  _145
REMARK   63  A    between atoms: _145  and  _146
REMARK   64  A    between atoms: _145  and  _148
REMARK   65  A    between atoms: _148  and  _149
REMARK   66  A    between atoms: _149  and  _259
REMARK   67  A    between atoms: _150  and  _152
REMARK   68  A    between atoms: _152  and  _153
REMARK   69  A    between atoms: _152  and  _155
REMARK   70  A    between atoms: _155  and  _156
REMARK   71  A    between atoms: _156  and  _157
REMARK   72  A    between atoms: _162  and  _164
REMARK   73  A    between atoms: _164  and  _165
REMARK   74  A    between atoms: _167  and  _169
REMARK   75  A    between atoms: _169  and  _170
REMARK   76  A    between atoms: _169  and  _172
REMARK   77  A    between atoms: _172  and  _173
REMARK   78  A    between atoms: _176  and  _178
REMARK   79  A    between atoms: _178  and  _179
REMARK   80  A    between atoms: _178  and  _181
REMARK   81  A    between atoms: _181  and  _182
REMARK   82  A    between atoms: _184  and  _186
REMARK   83  A    between atoms: _186  and  _187
REMARK   84  A    between atoms: _189  and  _191
REMARK   85  A    between atoms: _191  and  _192
REMARK   86  A    between atoms: _194  and  _196
REMARK   87  A    between atoms: _196  and  _197
REMARK   88  A    between atoms: _196  and  _199
REMARK   89  A    between atoms: _199  and  _200
REMARK   90  A    between atoms: _203  and  _205
REMARK   91  A    between atoms: _205  and  _206
REMARK   92  A    between atoms: _205  and  _208
REMARK   93  A    between atoms: _211  and  _213
REMARK   94  A    between atoms: _213  and  _214
REMARK   95  A    between atoms: _213  and  _216
REMARK   96  A    between atoms: _216  and  _217
REMARK   97  A    between atoms: _219  and  _221
REMARK   98  A    between atoms: _221  and  _222
REMARK   99  A    between atoms: _221  and  _224
REMARK  100  A    between atoms: _224  and  _225
REMARK  101  A    between atoms: _235  and  _237
REMARK  102  A    between atoms: _237  and  _238
REMARK  103  A    between atoms: _240  and  _242
REMARK  104  A    between atoms: _242  and  _243
REMARK  105  A    between atoms: _242  and  _245
REMARK  106  A    between atoms: _245  and  _246
REMARK  107  A    between atoms: _248  and  _250
REMARK  108  A    between atoms: _250  and  _251
REMARK  109  A    between atoms: _253  and  _255
REMARK  110  A    between atoms: _255  and  _256
REMARK  111  A    between atoms: _255  and  _258
REMARK  112  A    between atoms: _258  and  _259
REMARK  113  A    between atoms: _260  and  _262
REMARK  114  A    between atoms: _262  and  _263
REMARK  115  A    between atoms: _266  and  _268
REMARK  116  A    between atoms: _268  and  _269
REMARK  117  A    between atoms: _268  and  _271
REMARK  118  A    between atoms: _271  and  _272
REMARK  119  A    between atoms: _272  and  _273
REMARK  120  A    between atoms: _278  and  _280
REMARK  121  A    between atoms: _280  and  _281
REMARK  122  A    between atoms: _280  and  _283
REMARK  123  A    between atoms: _283  and  _284
REMARK  124  A    between atoms: _284  and  _285
REMARK  125  A    between atoms: _285  and  _286
REMARK  126  A    between atoms: _286  and  _287
REMARK  127  A    between atoms: _292  and  _293
REMARK  128  A    between atoms: _298  and  _300
REMARK  129  A    between atoms: _300  and  _301
REMARK  130  A    between atoms: _303  and  _305
REMARK  131  A    between atoms: _305  and  _306
REMARK  132  A    between atoms: _305  and  _308
REMARK  133  A    between atoms: _311  and  _313
REMARK  134  A    between atoms: _313  and  _314
REMARK  135  A    between atoms: _313  and  _316
REMARK  136  A    between atoms: _316  and  _317
REMARK  137  A    between atoms: _322  and  _323
REMARK                            x       y       z     vdW  Elec       q    Type
REMARK                         _______ _______ _______ _____ _____    ______ ____
ROOT
ATOM      1  O   HOH     1       2.017 -21.219  20.458  0.00  0.00    +0.000 OA
ENDROOT
TORSDOF 0
REMARK  Name = ../refined-set-2016/4abf/4abf_pocket.pdb
REMARK  137 active torsions:
REMARK  status: ('A' for Active; 'I' for Inactive)
REMARK    1  A    between atoms: _1  and  _3
REMARK    2  A    between atoms: _3  and  _4
REMARK    3  A    between atoms: _3  and  _6
REMARK    4  A    between atoms: _9  and  _11
REMARK    5  A    between atoms: _11  and  _12
REMARK    6  A    between atoms: _11  and  _14
REMARK    7  A    between atoms: _14  and  _15
REMARK    8  A    between atoms: _20  and  _22
REMARK    9  A    between atoms: _22  and  _23
REMARK   10  A    between atoms: _22  and  _25
REMARK   11  A    between atoms: _25  and  _26
REMARK   12  A    between atoms: _29  and  _31
REMARK   13  A    between atoms: _31  and  _32
REMARK   14  A    between atoms: _31  and  _34
REMARK   15  A    between atoms: _34  and  _35
REMARK   16  A    between atoms: _38  and  _40
REMARK   17  A    between atoms: _40  and  _41
REMARK   18  A    between atoms: _40  and  _43
REMARK   19  A    between atoms: _43  and  _44
REMARK   20  A    between atoms: _47  and  _49
REMARK   21  A    between atoms: _49  and  _50
REMARK   22  A    between atoms: _49  and  _52
REMARK   23  A    between atoms: _52  and  _53
REMARK   24  A    between atoms: _58  and  _60
REMARK   25  A    between atoms: _60  and  _61
REMARK   26  A    between atoms: _60  and  _63
REMARK   27  A    between atoms: _63  and  _64
REMARK   28  A    between atoms: _64  and  _65
REMARK   29  A    between atoms: _65  and  _66
REMARK   30  A    between atoms: _66  and  _67
REMARK   31  A    between atoms: _71  and  _73
REMARK   32  A    between atoms: _73  and  _74
REMARK   33  A    between atoms: _73  and  _76
REMARK   34  A    between atoms: _76  and  _77
REMARK   35  A    between atoms: _79  and  _81
REMARK   36  A    between atoms: _81  and  _82
REMARK   37  A    between atoms: _81  and  _84
REMARK   38  A    between atoms: _84  and  _85
REMARK   39  A    between atoms: _90  and  _91
REMARK   40  A    between atoms: _93  and  _95
REMARK   41  A    between atoms: _95  and  _96
REMARK   42  A    between atoms: _95  and  _98
REMARK   43  A    between atoms: _98  and  _99
REMARK   44  A    between atoms: _104  and  _105
REMARK   45  A    between atoms: _107  and  _109
REMARK   46  A    between atoms: _109  and  _110
REMARK   47  A    between atoms: _113  and  _115
REMARK   48  A    between atoms: _115  and  _116
REMARK   49  A    between atoms: _115  and  _118
REMARK   50  A    between atoms: _118  and  _119
REMARK   51  A    between atoms: _119  and  _120
REMARK   52  A    between atoms: _120  and  _121
REMARK   53  A    between atoms: _121  and  _122
REMARK   54  A    between atoms: _126  and  _128
REMARK   55  A    between atoms: _128  and  _129
REMARK   56  A    between atoms: _128  and  _131
REMARK   57  A    between atoms: _131  and  _132
REMARK   58  A    between atoms: _135  and  _137
REMARK   59  A    between atoms: _137  and  _138
REMARK   60  A    between atoms: _137  and  _140
REMARK   61  A    between atoms: _140  and  _141
REMARK   62  A    between atoms: _143  and  _145
REMARK   63  A    between atoms: _145  and  _146
REMARK   64  A    between atoms: _145  and  _148
REMARK   65  A    between atoms: _148  and  _149
REMARK   66  A    between atoms: _149  and  _259
REMARK   67  A    between atoms: _150  and  _152
REMARK   68  A    between atoms: _152  and  _153
REMARK   69  A    between atoms: _152  and  _155
REMARK   70  A    between atoms: _155  and  _156
REMARK   71  A    between atoms: _156  and  _157
REMARK   72  A    between atoms: _162  and  _164
REMARK   73  A    between atoms: _164  and  _165
REMARK   74  A    between atoms: _167  and  _169
REMARK   75  A    between atoms: _169  and  _170
REMARK   76  A    between atoms: _169  and  _172
REMARK   77  A    between atoms: _172  and  _173
REMARK   78  A    between atoms: _176  and  _178
REMARK   79  A    between atoms: _178  and  _179
REMARK   80  A    between atoms: _178  and  _181
REMARK   81  A    between atoms: _181  and  _182
REMARK   82  A    between atoms: _184  and  _186
REMARK   83  A    between atoms: _186  and  _187
REMARK   84  A    between atoms: _189  and  _191
REMARK   85  A    between atoms: _191  and  _192
REMARK   86  A    between atoms: _194  and  _196
REMARK   87  A    between atoms: _196  and  _197
REMARK   88  A    between atoms: _196  and  _199
REMARK   89  A    between atoms: _199  and  _200
REMARK   90  A    between atoms: _203  and  _205
REMARK   91  A    between atoms: _205  and  _206
REMARK   92  A    between atoms: _205  and  _208
REMARK   93  A    between atoms: _211  and  _213
REMARK   94  A    between atoms: _213  and  _214
REMARK   95  A    between atoms: _213  and  _216
REMARK   96  A    between atoms: _216  and  _217
REMARK   97  A    between atoms: _219  and  _221
REMARK   98  A    between atoms: _221  and  _222
REMARK   99  A    between atoms: _221  and  _224
REMARK  100  A    between atoms: _224  and  _225
REMARK  101  A    between atoms: _235  and  _237
REMARK  102  A    between atoms: _237  and  _238
REMARK  103  A    between atoms: _240  and  _242
REMARK  104  A    between atoms: _242  and  _243
REMARK  105  A    between atoms: _242  and  _245
REMARK  106  A    between atoms: _245  and  _246
REMARK  107  A    between atoms: _248  and  _250
REMARK  108  A    between atoms: _250  and  _251
REMARK  109  A    between atoms: _253  and  _255
REMARK  110  A    between atoms: _255  and  _256
REMARK  111  A    between atoms: _255  and  _258
REMARK  112  A    between atoms: _258  and  _259
REMARK  113  A    between atoms: _260  and  _262
REMARK  114  A    between atoms: _262  and  _263
REMARK  115  A    between atoms: _266  and  _268
REMARK  116  A    between atoms: _268  and  _269
REMARK  117  A    between atoms: _268  and  _271
REMARK  118  A    between atoms: _271  and  _272
REMARK  119  A    between atoms: _272  and  _273
REMARK  120  A    between atoms: _278  and  _280
REMARK  121  A    between atoms: _280  and  _281
REMARK  122  A    between atoms: _280  and  _283
REMARK  123  A    between atoms: _283  and  _284
REMARK  124  A    between atoms: _284  and  _285
REMARK  125  A    between atoms: _285  and  _286
REMARK  126  A    between atoms: _286  and  _287
REMARK  127  A    between atoms: _292  and  _293
REMARK  128  A    between atoms: _298  and  _300
REMARK  129  A    between atoms: _300  and  _301
REMARK  130  A    between atoms: _303  and  _305
REMARK  131  A    between atoms: _305  and  _306
REMARK  132  A    between atoms: _305  and  _308
REMARK  133  A    between atoms: _311  and  _313
REMARK  134  A    between atoms: _313  and  _314
REMARK  135  A    between atoms: _313  and  _316
REMARK  136  A    between atoms: _316  and  _317
REMARK  137  A    between atoms: _322  and  _323
REMARK                            x       y       z     vdW  Elec       q    Type
REMARK                         _______ _______ _______ _____ _____    ______ ____
ROOT
ATOM      1  O   HOH     1       3.776 -20.394  23.596  0.00  0.00    +0.000 OA
ENDROOT
TORSDOF 0
REMARK  Name = ../refined-set-2016/4abf/4abf_pocket.pdb
REMARK  137 active torsions:
REMARK  status: ('A' for Active; 'I' for Inactive)
REMARK    1  A    between atoms: _1  and  _3
REMARK    2  A    between atoms: _3  and  _4
REMARK    3  A    between atoms: _3  and  _6
REMARK    4  A    between atoms: _9  and  _11
REMARK    5  A    between atoms: _11  and  _12
REMARK    6  A    between atoms: _11  and  _14
REMARK    7  A    between atoms: _14  and  _15
REMARK    8  A    between atoms: _20  and  _22
REMARK    9  A    between atoms: _22  and  _23
REMARK   10  A    between atoms: _22  and  _25
REMARK   11  A    between atoms: _25  and  _26
REMARK   12  A    between atoms: _29  and  _31
REMARK   13  A    between atoms: _31  and  _32
REMARK   14  A    between atoms: _31  and  _34
REMARK   15  A    between atoms: _34  and  _35
REMARK   16  A    between atoms: _38  and  _40
REMARK   17  A    between atoms: _40  and  _41
REMARK   18  A    between atoms: _40  and  _43
REMARK   19  A    between atoms: _43  and  _44
REMARK   20  A    between atoms: _47  and  _49
REMARK   21  A    between atoms: _49  and  _50
REMARK   22  A    between atoms: _49  and  _52
REMARK   23  A    between atoms: _52  and  _53
REMARK   24  A    between atoms: _58  and  _60
REMARK   25  A    between atoms: _60  and  _61
REMARK   26  A    between atoms: _60  and  _63
REMARK   27  A    between atoms: _63  and  _64
REMARK   28  A    between atoms: _64  and  _65
REMARK   29  A    between atoms: _65  and  _66
REMARK   30  A    between atoms: _66  and  _67
REMARK   31  A    between atoms: _71  and  _73
REMARK   32  A    between atoms: _73  and  _74
REMARK   33  A    between atoms: _73  and  _76
REMARK   34  A    between atoms: _76  and  _77
REMARK   35  A    between atoms: _79  and  _81
REMARK   36  A    between atoms: _81  and  _82
REMARK   37  A    between atoms: _81  and  _84
REMARK   38  A    between atoms: _84  and  _85
REMARK   39  A    between atoms: _90  and  _91
REMARK   40  A    between atoms: _93  and  _95
REMARK   41  A    between atoms: _95  and  _96
REMARK   42  A    between atoms: _95  and  _98
REMARK   43  A    between atoms: _98  and  _99
REMARK   44  A    between atoms: _104  and  _105
REMARK   45  A    between atoms: _107  and  _109
REMARK   46  A    between atoms: _109  and  _110
REMARK   47  A    between atoms: _113  and  _115
REMARK   48  A    between atoms: _115  and  _116
REMARK   49  A    between atoms: _115  and  _118
REMARK   50  A    between atoms: _118  and  _119
REMARK   51  A    between atoms: _119  and  _120
REMARK   52  A    between atoms: _120  and  _121
REMARK   53  A    between atoms: _121  and  _122
REMARK   54  A    between atoms: _126  and  _128
REMARK   55  A    between atoms: _128  and  _129
REMARK   56  A    between atoms: _128  and  _131
REMARK   57  A    between atoms: _131  and  _132
REMARK   58  A    between atoms: _135  and  _137
REMARK   59  A    between atoms: _137  and  _138
REMARK   60  A    between atoms: _137  and  _140
REMARK   61  A    between atoms: _140  and  _141
REMARK   62  A    between atoms: _143  and  _145
REMARK   63  A    between atoms: _145  and  _146
REMARK   64  A    between atoms: _145  and  _148
REMARK   65  A    between atoms: _148  and  _149
REMARK   66  A    between atoms: _149  and  _259
REMARK   67  A    between atoms: _150  and  _152
REMARK   68  A    between atoms: _152  and  _153
REMARK   69  A    between atoms: _152  and  _155
REMARK   70  A    between atoms: _155  and  _156
REMARK   71  A    between atoms: _156  and  _157
REMARK   72  A    between atoms: _162  and  _164
REMARK   73  A    between atoms: _164  and  _165
REMARK   74  A    between atoms: _167  and  _169
REMARK   75  A    between atoms: _169  and  _170
REMARK   76  A    between atoms: _169  and  _172
REMARK   77  A    between atoms: _172  and  _173
REMARK   78  A    between atoms: _176  and  _178
REMARK   79  A    between atoms: _178  and  _179
REMARK   80  A    between atoms: _178  and  _181
REMARK   81  A    between atoms: _181  and  _182
REMARK   82  A    between atoms: _184  and  _186
REMARK   83  A    between atoms: _186  and  _187
REMARK   84  A    between atoms: _189  and  _191
REMARK   85  A    between atoms: _191  and  _192
REMARK   86  A    between atoms: _194  and  _196
REMARK   87  A    between atoms: _196  and  _197
REMARK   88  A    between atoms: _196  and  _199
REMARK   89  A    between atoms: _199  and  _200
REMARK   90  A    between atoms: _203  and  _205
REMARK   91  A    between atoms: _205  and  _206
REMARK   92  A    between atoms: _205  and  _208
REMARK   93  A    between atoms: _211  and  _213
REMARK   94  A    between atoms: _213  and  _214
REMARK   95  A    between atoms: _213  and  _216
REMARK   96  A    between atoms: _216  and  _217
REMARK   97  A    between atoms: _219  and  _221
REMARK   98  A    between atoms: _221  and  _222
REMARK   99  A    between atoms: _221  and  _224
REMARK  100  A    between atoms: _224  and  _225
REMARK  101  A    between atoms: _235  and  _237
REMARK  102  A    between atoms: _237  and  _238
REMARK  103  A    between atoms: _240  and  _242
REMARK  104  A    between atoms: _242  and  _243
REMARK  105  A    between atoms: _242  and  _245
REMARK  106  A    between atoms: _245  and  _246
REMARK  107  A    between atoms: _248  and  _250
REMARK  108  A    between atoms: _250  and  _251
REMARK  109  A    between atoms: _253  and  _255
REMARK  110  A    between atoms: _255  and  _256
REMARK  111  A    between atoms: _255  and  _258
REMARK  112  A    between atoms: _258  and  _259
REMARK  113  A    between atoms: _260  and  _262
REMARK  114  A    between atoms: _262  and  _263
REMARK  115  A    between atoms: _266  and  _268
REMARK  116  A    between atoms: _268  and  _269
REMARK  117  A    between atoms: _268  and  _271
REMARK  118  A    between atoms: _271  and  _272
REMARK  119  A    between atoms: _272  and  _273
REMARK  120  A    between atoms: _278  and  _280
REMARK  121  A    between atoms: _280  and  _281
REMARK  122  A    between atoms: _280  and  _283
REMARK  123  A    between atoms: _283  and  _284
REMARK  124  A    between atoms: _284  and  _285
REMARK  125  A    between atoms: _285  and  _286
REMARK  126  A    between atoms: _286  and  _287
REMARK  127  A    between atoms: _292  and  _293
REMARK  128  A    between atoms: _298  and  _300
REMARK  129  A    between atoms: _300  and  _301
REMARK  130  A    between atoms: _303  and  _305
REMARK  131  A    between atoms: _305  and  _306
REMARK  132  A    between atoms: _305  and  _308
REMARK  133  A    between atoms: _311  and  _313
REMARK  134  A    between atoms: _313  and  _314
REMARK  135  A    between atoms: _313  and  _316
REMARK  136  A    between atoms: _316  and  _317
REMARK  137  A    between atoms: _322  and  _323
REMARK                            x       y       z     vdW  Elec       q    Type
REMARK                         _______ _______ _______ _____ _____    ______ ____
ROOT
ATOM      1  O   HOH     1       2.179 -15.029  21.086  0.00  0.00    +0.000 OA
ENDROOT
TORSDOF 0
REMARK  Name = ../refined-set-2016/4abf/4abf_pocket.pdb
REMARK  137 active torsions:
REMARK  status: ('A' for Active; 'I' for Inactive)
REMARK    1  A    between atoms: _1  and  _3
REMARK    2  A    between atoms: _3  and  _4
REMARK    3  A    between atoms: _3  and  _6
REMARK    4  A    between atoms: _9  and  _11
REMARK    5  A    between atoms: _11  and  _12
REMARK    6  A    between atoms: _11  and  _14
REMARK    7  A    between atoms: _14  and  _15
REMARK    8  A    between atoms: _20  and  _22
REMARK    9  A    between atoms: _22  and  _23
REMARK   10  A    between atoms: _22  and  _25
REMARK   11  A    between atoms: _25  and  _26
REMARK   12  A    between atoms: _29  and  _31
REMARK   13  A    between atoms: _31  and  _32
REMARK   14  A    between atoms: _31  and  _34
REMARK   15  A    between atoms: _34  and  _35
REMARK   16  A    between atoms: _38  and  _40
REMARK   17  A    between atoms: _40  and  _41
REMARK   18  A    between atoms: _40  and  _43
REMARK   19  A    between atoms: _43  and  _44
REMARK   20  A    between atoms: _47  and  _49
REMARK   21  A    between atoms: _49  and  _50
REMARK   22  A    between atoms: _49  and  _52
REMARK   23  A    between atoms: _52  and  _53
REMARK   24  A    between atoms: _58  and  _60
REMARK   25  A    between atoms: _60  and  _61
REMARK   26  A    between atoms: _60  and  _63
REMARK   27  A    between atoms: _63  and  _64
REMARK   28  A    between atoms: _64  and  _65
REMARK   29  A    between atoms: _65  and  _66
REMARK   30  A    between atoms: _66  and  _67
REMARK   31  A    between atoms: _71  and  _73
REMARK   32  A    between atoms: _73  and  _74
REMARK   33  A    between atoms: _73  and  _76
REMARK   34  A    between atoms: _76  and  _77
REMARK   35  A    between atoms: _79  and  _81
REMARK   36  A    between atoms: _81  and  _82
REMARK   37  A    between atoms: _81  and  _84
REMARK   38  A    between atoms: _84  and  _85
REMARK   39  A    between atoms: _90  and  _91
REMARK   40  A    between atoms: _93  and  _95
REMARK   41  A    between atoms: _95  and  _96
REMARK   42  A    between atoms: _95  and  _98
REMARK   43  A    between atoms: _98  and  _99
REMARK   44  A    between atoms: _104  and  _105
REMARK   45  A    between atoms: _107  and  _109
REMARK   46  A    between atoms: _109  and  _110
REMARK   47  A    between atoms: _113  and  _115
REMARK   48  A    between atoms: _115  and  _116
REMARK   49  A    between atoms: _115  and  _118
REMARK   50  A    between atoms: _118  and  _119
REMARK   51  A    between atoms: _119  and  _120
REMARK   52  A    between atoms: _120  and  _121
REMARK   53  A    between atoms: _121  and  _122
REMARK   54  A    between atoms: _126  and  _128
REMARK   55  A    between atoms: _128  and  _129
REMARK   56  A    between atoms: _128  and  _131
REMARK   57  A    between atoms: _131  and  _132
REMARK   58  A    between atoms: _135  and  _137
REMARK   59  A    between atoms: _137  and  _138
REMARK   60  A    between atoms: _137  and  _140
REMARK   61  A    between atoms: _140  and  _141
REMARK   62  A    between atoms: _143  and  _145
REMARK   63  A    between atoms: _145  and  _146
REMARK   64  A    between atoms: _145  and  _148
REMARK   65  A    between atoms: _148  and  _149
REMARK   66  A    between atoms: _149  and  _259
REMARK   67  A    between atoms: _150  and  _152
REMARK   68  A    between atoms: _152  and  _153
REMARK   69  A    between atoms: _152  and  _155
REMARK   70  A    between atoms: _155  and  _156
REMARK   71  A    between atoms: _156  and  _157
REMARK   72  A    between atoms: _162  and  _164
REMARK   73  A    between atoms: _164  and  _165
REMARK   74  A    between atoms: _167  and  _169
REMARK   75  A    between atoms: _169  and  _170
REMARK   76  A    between atoms: _169  and  _172
REMARK   77  A    between atoms: _172  and  _173
REMARK   78  A    between atoms: _176  and  _178
REMARK   79  A    between atoms: _178  and  _179
REMARK   80  A    between atoms: _178  and  _181
REMARK   81  A    between atoms: _181  and  _182
REMARK   82  A    between atoms: _184  and  _186
REMARK   83  A    between atoms: _186  and  _187
REMARK   84  A    between atoms: _189  and  _191
REMARK   85  A    between atoms: _191  and  _192
REMARK   86  A    between atoms: _194  and  _196
REMARK   87  A    between atoms: _196  and  _197
REMARK   88  A    between atoms: _196  and  _199
REMARK   89  A    between atoms: _199  and  _200
REMARK   90  A    between atoms: _203  and  _205
REMARK   91  A    between atoms: _205  and  _206
REMARK   92  A    between atoms: _205  and  _208
REMARK   93  A    between atoms: _211  and  _213
REMARK   94  A    between atoms: _213  and  _214
REMARK   95  A    between atoms: _213  and  _216
REMARK   96  A    between atoms: _216  and  _217
REMARK   97  A    between atoms: _219  and  _221
REMARK   98  A    between atoms: _221  and  _222
REMARK   99  A    between atoms: _221  and  _224
REMARK  100  A    between atoms: _224  and  _225
REMARK  101  A    between atoms: _235  and  _237
REMARK  102  A    between atoms: _237  and  _238
REMARK  103  A    between atoms: _240  and  _242
REMARK  104  A    between atoms: _242  and  _243
REMARK  105  A    between atoms: _242  and  _245
REMARK  106  A    between atoms: _245  and  _246
REMARK  107  A    between atoms: _248  and  _250
REMARK  108  A    between atoms: _250  and  _251
REMARK  109  A    between atoms: _253  and  _255
REMARK  110  A    between atoms: _255  and  _256
REMARK  111  A    between atoms: _255  and  _258
REMARK  112  A    between atoms: _258  and  _259
REMARK  113  A    between atoms: _260  and  _262
REMARK  114  A    between atoms: _262  and  _263
REMARK  115  A    between atoms: _266  and  _268
REMARK  116  A    between atoms: _268  and  _269
REMARK  117  A    between atoms: _268  and  _271
REMARK  118  A    between atoms: _271  and  _272
REMARK  119  A    between atoms: _272  and  _273
REMARK  120  A    between atoms: _278  and  _280
REMARK  121  A    between atoms: _280  and  _281
REMARK  122  A    between atoms: _280  and  _283
REMARK  123  A    between atoms: _283  and  _284
REMARK  124  A    between atoms: _284  and  _285
REMARK  125  A    between atoms: _285  and  _286
REMARK  126  A    between atoms: _286  and  _287
REMARK  127  A    between atoms: _292  and  _293
REMARK  128  A    between atoms: _298  and  _300
REMARK  129  A    between atoms: _300  and  _301
REMARK  130  A    between atoms: _303  and  _305
REMARK  131  A    between atoms: _305  and  _306
REMARK  132  A    between atoms: _305  and  _308
REMARK  133  A    between atoms: _311  and  _313
REMARK  134  A    between atoms: _313  and  _314
REMARK  135  A    between atoms: _313  and  _316
REMARK  136  A    between atoms: _316  and  _317
REMARK  137  A    between atoms: _322  and  _323
REMARK                            x       y       z     vdW  Elec       q    Type
REMARK                         _______ _______ _______ _____ _____    ______ ____
ROOT
ATOM      1  O   HOH     1       4.638 -14.121  23.086  0.00  0.00    +0.000 OA
ENDROOT
TORSDOF 0
REMARK  Name = ../refined-set-2016/4abf/4abf_pocket.pdb
REMARK  137 active torsions:
REMARK  status: ('A' for Active; 'I' for Inactive)
REMARK    1  A    between atoms: _1  and  _3
REMARK    2  A    between atoms: _3  and  _4
REMARK    3  A    between atoms: _3  and  _6
REMARK    4  A    between atoms: _9  and  _11
REMARK    5  A    between atoms: _11  and  _12
REMARK    6  A    between atoms: _11  and  _14
REMARK    7  A    between atoms: _14  and  _15
REMARK    8  A    between atoms: _20  and  _22
REMARK    9  A    between atoms: _22  and  _23
REMARK   10  A    between atoms: _22  and  _25
REMARK   11  A    between atoms: _25  and  _26
REMARK   12  A    between atoms: _29  and  _31
REMARK   13  A    between atoms: _31  and  _32
REMARK   14  A    between atoms: _31  and  _34
REMARK   15  A    between atoms: _34  and  _35
REMARK   16  A    between atoms: _38  and  _40
REMARK   17  A    between atoms: _40  and  _41
REMARK   18  A    between atoms: _40  and  _43
REMARK   19  A    between atoms: _43  and  _44
REMARK   20  A    between atoms: _47  and  _49
REMARK   21  A    between atoms: _49  and  _50
REMARK   22  A    between atoms: _49  and  _52
REMARK   23  A    between atoms: _52  and  _53
REMARK   24  A    between atoms: _58  and  _60
REMARK   25  A    between atoms: _60  and  _61
REMARK   26  A    between atoms: _60  and  _63
REMARK   27  A    between atoms: _63  and  _64
REMARK   28  A    between atoms: _64  and  _65
REMARK   29  A    between atoms: _65  and  _66
REMARK   30  A    between atoms: _66  and  _67
REMARK   31  A    between atoms: _71  and  _73
REMARK   32  A    between atoms: _73  and  _74
REMARK   33  A    between atoms: _73  and  _76
REMARK   34  A    between atoms: _76  and  _77
REMARK   35  A    between atoms: _79  and  _81
REMARK   36  A    between atoms: _81  and  _82
REMARK   37  A    between atoms: _81  and  _84
REMARK   38  A    between atoms: _84  and  _85
REMARK   39  A    between atoms: _90  and  _91
REMARK   40  A    between atoms: _93  and  _95
REMARK   41  A    between atoms: _95  and  _96
REMARK   42  A    between atoms: _95  and  _98
REMARK   43  A    between atoms: _98  and  _99
REMARK   44  A    between atoms: _104  and  _105
REMARK   45  A    between atoms: _107  and  _109
REMARK   46  A    between atoms: _109  and  _110
REMARK   47  A    between atoms: _113  and  _115
REMARK   48  A    between atoms: _115  and  _116
REMARK   49  A    between atoms: _115  and  _118
REMARK   50  A    between atoms: _118  and  _119
REMARK   51  A    between atoms: _119  and  _120
REMARK   52  A    between atoms: _120  and  _121
REMARK   53  A    between atoms: _121  and  _122
REMARK   54  A    between atoms: _126  and  _128
REMARK   55  A    between atoms: _128  and  _129
REMARK   56  A    between atoms: _128  and  _131
REMARK   57  A    between atoms: _131  and  _132
REMARK   58  A    between atoms: _135  and  _137
REMARK   59  A    between atoms: _137  and  _138
REMARK   60  A    between atoms: _137  and  _140
REMARK   61  A    between atoms: _140  and  _141
REMARK   62  A    between atoms: _143  and  _145
REMARK   63  A    between atoms: _145  and  _146
REMARK   64  A    between atoms: _145  and  _148
REMARK   65  A    between atoms: _148  and  _149
REMARK   66  A    between atoms: _149  and  _259
REMARK   67  A    between atoms: _150  and  _152
REMARK   68  A    between atoms: _152  and  _153
REMARK   69  A    between atoms: _152  and  _155
REMARK   70  A    between atoms: _155  and  _156
REMARK   71  A    between atoms: _156  and  _157
REMARK   72  A    between atoms: _162  and  _164
REMARK   73  A    between atoms: _164  and  _165
REMARK   74  A    between atoms: _167  and  _169
REMARK   75  A    between atoms: _169  and  _170
REMARK   76  A    between atoms: _169  and  _172
REMARK   77  A    between atoms: _172  and  _173
REMARK   78  A    between atoms: _176  and  _178
REMARK   79  A    between atoms: _178  and  _179
REMARK   80  A    between atoms: _178  and  _181
REMARK   81  A    between atoms: _181  and  _182
REMARK   82  A    between atoms: _184  and  _186
REMARK   83  A    between atoms: _186  and  _187
REMARK   84  A    between atoms: _189  and  _191
REMARK   85  A    between atoms: _191  and  _192
REMARK   86  A    between atoms: _194  and  _196
REMARK   87  A    between atoms: _196  and  _197
REMARK   88  A    between atoms: _196  and  _199
REMARK   89  A    between atoms: _199  and  _200
REMARK   90  A    between atoms: _203  and  _205
REMARK   91  A    between atoms: _205  and  _206
REMARK   92  A    between atoms: _205  and  _208
REMARK   93  A    between atoms: _211  and  _213
REMARK   94  A    between atoms: _213  and  _214
REMARK   95  A    between atoms: _213  and  _216
REMARK   96  A    between atoms: _216  and  _217
REMARK   97  A    between atoms: _219  and  _221
REMARK   98  A    between atoms: _221  and  _222
REMARK   99  A    between atoms: _221  and  _224
REMARK  100  A    between atoms: _224  and  _225
REMARK  101  A    between atoms: _235  and  _237
REMARK  102  A    between atoms: _237  and  _238
REMARK  103  A    between atoms: _240  and  _242
REMARK  104  A    between atoms: _242  and  _243
REMARK  105  A    between atoms: _242  and  _245
REMARK  106  A    between atoms: _245  and  _246
REMARK  107  A    between atoms: _248  and  _250
REMARK  108  A    between atoms: _250  and  _251
REMARK  109  A    between atoms: _253  and  _255
REMARK  110  A    between atoms: _255  and  _256
REMARK  111  A    between atoms: _255  and  _258
REMARK  112  A    between atoms: _258  and  _259
REMARK  113  A    between atoms: _260  and  _262
REMARK  114  A    between atoms: _262  and  _263
REMARK  115  A    between atoms: _266  and  _268
REMARK  116  A    between atoms: _268  and  _269
REMARK  117  A    between atoms: _268  and  _271
REMARK  118  A    between atoms: _271  and  _272
REMARK  119  A    between atoms: _272  and  _273
REMARK  120  A    between atoms: _278  and  _280
REMARK  121  A    between atoms: _280  and  _281
REMARK  122  A    between atoms: _280  and  _283
REMARK  123  A    between atoms: _283  and  _284
REMARK  124  A    between atoms: _284  and  _285
REMARK  125  A    between atoms: _285  and  _286
REMARK  126  A    between atoms: _286  and  _287
REMARK  127  A    between atoms: _292  and  _293
REMARK  128  A    between atoms: _298  and  _300
REMARK  129  A    between atoms: _300  and  _301
REMARK  130  A    between atoms: _303  and  _305
REMARK  131  A    between atoms: _305  and  _306
REMARK  132  A    between atoms: _305  and  _308
REMARK  133  A    between atoms: _311  and  _313
REMARK  134  A    between atoms: _313  and  _314
REMARK  135  A    between atoms: _313  and  _316
REMARK  136  A    between atoms: _316  and  _317
REMARK  137  A    between atoms: _322  and  _323
REMARK                            x       y       z     vdW  Elec       q    Type
REMARK                         _______ _______ _______ _____ _____    ______ ____
ROOT
ATOM      1  O   HOH     1       4.712 -17.791  23.950  0.00  0.00    +0.000 OA
ENDROOT
TORSDOF 0
REMARK  Name = ../refined-set-2016/4abf/4abf_pocket.pdb
REMARK  137 active torsions:
REMARK  status: ('A' for Active; 'I' for Inactive)
REMARK    1  A    between atoms: _1  and  _3
REMARK    2  A    between atoms: _3  and  _4
REMARK    3  A    between atoms: _3  and  _6
REMARK    4  A    between atoms: _9  and  _11
REMARK    5  A    between atoms: _11  and  _12
REMARK    6  A    between atoms: _11  and  _14
REMARK    7  A    between atoms: _14  and  _15
REMARK    8  A    between atoms: _20  and  _22
REMARK    9  A    between atoms: _22  and  _23
REMARK   10  A    between atoms: _22  and  _25
REMARK   11  A    between atoms: _25  and  _26
REMARK   12  A    between atoms: _29  and  _31
REMARK   13  A    between atoms: _31  and  _32
REMARK   14  A    between atoms: _31  and  _34
REMARK   15  A    between atoms: _34  and  _35
REMARK   16  A    between atoms: _38  and  _40
REMARK   17  A    between atoms: _40  and  _41
REMARK   18  A    between atoms: _40  and  _43
REMARK   19  A    between atoms: _43  and  _44
REMARK   20  A    between atoms: _47  and  _49
REMARK   21  A    between atoms: _49  and  _50
REMARK   22  A    between atoms: _49  and  _52
REMARK   23  A    between atoms: _52  and  _53
REMARK   24  A    between atoms: _58  and  _60
REMARK   25  A    between atoms: _60  and  _61
REMARK   26  A    between atoms: _60  and  _63
REMARK   27  A    between atoms: _63  and  _64
REMARK   28  A    between atoms: _64  and  _65
REMARK   29  A    between atoms: _65  and  _66
REMARK   30  A    between atoms: _66  and  _67
REMARK   31  A    between atoms: _71  and  _73
REMARK   32  A    between atoms: _73  and  _74
REMARK   33  A    between atoms: _73  and  _76
REMARK   34  A    between atoms: _76  and  _77
REMARK   35  A    between atoms: _79  and  _81
REMARK   36  A    between atoms: _81  and  _82
REMARK   37  A    between atoms: _81  and  _84
REMARK   38  A    between atoms: _84  and  _85
REMARK   39  A    between atoms: _90  and  _91
REMARK   40  A    between atoms: _93  and  _95
REMARK   41  A    between atoms: _95  and  _96
REMARK   42  A    between atoms: _95  and  _98
REMARK   43  A    between atoms: _98  and  _99
REMARK   44  A    between atoms: _104  and  _105
REMARK   45  A    between atoms: _107  and  _109
REMARK   46  A    between atoms: _109  and  _110
REMARK   47  A    between atoms: _113  and  _115
REMARK   48  A    between atoms: _115  and  _116
REMARK   49  A    between atoms: _115  and  _118
REMARK   50  A    between atoms: _118  and  _119
REMARK   51  A    between atoms: _119  and  _120
REMARK   52  A    between atoms: _120  and  _121
REMARK   53  A    between atoms: _121  and  _122
REMARK   54  A    between atoms: _126  and  _128
REMARK   55  A    between atoms: _128  and  _129
REMARK   56  A    between atoms: _128  and  _131
REMARK   57  A    between atoms: _131  and  _132
REMARK   58  A    between atoms: _135  and  _137
REMARK   59  A    between atoms: _137  and  _138
REMARK   60  A    between atoms: _137  and  _140
REMARK   61  A    between atoms: _140  and  _141
REMARK   62  A    between atoms: _143  and  _145
REMARK   63  A    between atoms: _145  and  _146
REMARK   64  A    between atoms: _145  and  _148
REMARK   65  A    between atoms: _148  and  _149
REMARK   66  A    between atoms: _149  and  _259
REMARK   67  A    between atoms: _150  and  _152
REMARK   68  A    between atoms: _152  and  _153
REMARK   69  A    between atoms: _152  and  _155
REMARK   70  A    between atoms: _155  and  _156
REMARK   71  A    between atoms: _156  and  _157
REMARK   72  A    between atoms: _162  and  _164
REMARK   73  A    between atoms: _164  and  _165
REMARK   74  A    between atoms: _167  and  _169
REMARK   75  A    between atoms: _169  and  _170
REMARK   76  A    between atoms: _169  and  _172
REMARK   77  A    between atoms: _172  and  _173
REMARK   78  A    between atoms: _176  and  _178
REMARK   79  A    between atoms: _178  and  _179
REMARK   80  A    between atoms: _178  and  _181
REMARK   81  A    between atoms: _181  and  _182
REMARK   82  A    between atoms: _184  and  _186
REMARK   83  A    between atoms: _186  and  _187
REMARK   84  A    between atoms: _189  and  _191
REMARK   85  A    between atoms: _191  and  _192
REMARK   86  A    between atoms: _194  and  _196
REMARK   87  A    between atoms: _196  and  _197
REMARK   88  A    between atoms: _196  and  _199
REMARK   89  A    between atoms: _199  and  _200
REMARK   90  A    between atoms: _203  and  _205
REMARK   91  A    between atoms: _205  and  _206
REMARK   92  A    between atoms: _205  and  _208
REMARK   93  A    between atoms: _211  and  _213
REMARK   94  A    between atoms: _213  and  _214
REMARK   95  A    between atoms: _213  and  _216
REMARK   96  A    between atoms: _216  and  _217
REMARK   97  A    between atoms: _219  and  _221
REMARK   98  A    between atoms: _221  and  _222
REMARK   99  A    between atoms: _221  and  _224
REMARK  100  A    between atoms: _224  and  _225
REMARK  101  A    between atoms: _235  and  _237
REMARK  102  A    between atoms: _237  and  _238
REMARK  103  A    between atoms: _240  and  _242
REMARK  104  A    between atoms: _242  and  _243
REMARK  105  A    between atoms: _242  and  _245
REMARK  106  A    between atoms: _245  and  _246
REMARK  107  A    between atoms: _248  and  _250
REMARK  108  A    between atoms: _250  and  _251
REMARK  109  A    between atoms: _253  and  _255
REMARK  110  A    between atoms: _255  and  _256
REMARK  111  A    between atoms: _255  and  _258
REMARK  112  A    between atoms: _258  and  _259
REMARK  113  A    between atoms: _260  and  _262
REMARK  114  A    between atoms: _262  and  _263
REMARK  115  A    between atoms: _266  and  _268
REMARK  116  A    between atoms: _268  and  _269
REMARK  117  A    between atoms: _268  and  _271
REMARK  118  A    between atoms: _271  and  _272
REMARK  119  A    between atoms: _272  and  _273
REMARK  120  A    between atoms: _278  and  _280
REMARK  121  A    between atoms: _280  and  _281
REMARK  122  A    between atoms: _280  and  _283
REMARK  123  A    between atoms: _283  and  _284
REMARK  124  A    between atoms: _284  and  _285
REMARK  125  A    between atoms: _285  and  _286
REMARK  126  A    between atoms: _286  and  _287
REMARK  127  A    between atoms: _292  and  _293
REMARK  128  A    between atoms: _298  and  _300
REMARK  129  A    between atoms: _300  and  _301
REMARK  130  A    between atoms: _303  and  _305
REMARK  131  A    between atoms: _305  and  _306
REMARK  132  A    between atoms: _305  and  _308
REMARK  133  A    between atoms: _311  and  _313
REMARK  134  A    between atoms: _313  and  _314
REMARK  135  A    between atoms: _313  and  _316
REMARK  136  A    between atoms: _316  and  _317
REMARK  137  A    between atoms: _322  and  _323
REMARK                            x       y       z     vdW  Elec       q    Type
REMARK                         _______ _______ _______ _____ _____    ______ ____
ROOT
ATOM      1  O   HOH     1      -0.724 -17.668  17.558  0.00  0.00    +0.000 OA
ENDROOT
TORSDOF 0
REMARK  Name = ../refined-set-2016/4abf/4abf_pocket.pdb
REMARK  137 active torsions:
REMARK  status: ('A' for Active; 'I' for Inactive)
REMARK    1  A    between atoms: _1  and  _3
REMARK    2  A    between atoms: _3  and  _4
REMARK    3  A    between atoms: _3  and  _6
REMARK    4  A    between atoms: _9  and  _11
REMARK    5  A    between atoms: _11  and  _12
REMARK    6  A    between atoms: _11  and  _14
REMARK    7  A    between atoms: _14  and  _15
REMARK    8  A    between atoms: _20  and  _22
REMARK    9  A    between atoms: _22  and  _23
REMARK   10  A    between atoms: _22  and  _25
REMARK   11  A    between atoms: _25  and  _26
REMARK   12  A    between atoms: _29  and  _31
REMARK   13  A    between atoms: _31  and  _32
REMARK   14  A    between atoms: _31  and  _34
REMARK   15  A    between atoms: _34  and  _35
REMARK   16  A    between atoms: _38  and  _40
REMARK   17  A    between atoms: _40  and  _41
REMARK   18  A    between atoms: _40  and  _43
REMARK   19  A    between atoms: _43  and  _44
REMARK   20  A    between atoms: _47  and  _49
REMARK   21  A    between atoms: _49  and  _50
REMARK   22  A    between atoms: _49  and  _52
REMARK   23  A    between atoms: _52  and  _53
REMARK   24  A    between atoms: _58  and  _60
REMARK   25  A    between atoms: _60  and  _61
REMARK   26  A    between atoms: _60  and  _63
REMARK   27  A    between atoms: _63  and  _64
REMARK   28  A    between atoms: _64  and  _65
REMARK   29  A    between atoms: _65  and  _66
REMARK   30  A    between atoms: _66  and  _67
REMARK   31  A    between atoms: _71  and  _73
REMARK   32  A    between atoms: _73  and  _74
REMARK   33  A    between atoms: _73  and  _76
REMARK   34  A    between atoms: _76  and  _77
REMARK   35  A    between atoms: _79  and  _81
REMARK   36  A    between atoms: _81  and  _82
REMARK   37  A    between atoms: _81  and  _84
REMARK   38  A    between atoms: _84  and  _85
REMARK   39  A    between atoms: _90  and  _91
REMARK   40  A    between atoms: _93  and  _95
REMARK   41  A    between atoms: _95  and  _96
REMARK   42  A    between atoms: _95  and  _98
REMARK   43  A    between atoms: _98  and  _99
REMARK   44  A    between atoms: _104  and  _105
REMARK   45  A    between atoms: _107  and  _109
REMARK   46  A    between atoms: _109  and  _110
REMARK   47  A    between atoms: _113  and  _115
REMARK   48  A    between atoms: _115  and  _116
REMARK   49  A    between atoms: _115  and  _118
REMARK   50  A    between atoms: _118  and  _119
REMARK   51  A    between atoms: _119  and  _120
REMARK   52  A    between atoms: _120  and  _121
REMARK   53  A    between atoms: _121  and  _122
REMARK   54  A    between atoms: _126  and  _128
REMARK   55  A    between atoms: _128  and  _129
REMARK   56  A    between atoms: _128  and  _131
REMARK   57  A    between atoms: _131  and  _132
REMARK   58  A    between atoms: _135  and  _137
REMARK   59  A    between atoms: _137  and  _138
REMARK   60  A    between atoms: _137  and  _140
REMARK   61  A    between atoms: _140  and  _141
REMARK   62  A    between atoms: _143  and  _145
REMARK   63  A    between atoms: _145  and  _146
REMARK   64  A    between atoms: _145  and  _148
REMARK   65  A    between atoms: _148  and  _149
REMARK   66  A    between atoms: _149  and  _259
REMARK   67  A    between atoms: _150  and  _152
REMARK   68  A    between atoms: _152  and  _153
REMARK   69  A    between atoms: _152  and  _155
REMARK   70  A    between atoms: _155  and  _156
REMARK   71  A    between atoms: _156  and  _157
REMARK   72  A    between atoms: _162  and  _164
REMARK   73  A    between atoms: _164  and  _165
REMARK   74  A    between atoms: _167  and  _169
REMARK   75  A    between atoms: _169  and  _170
REMARK   76  A    between atoms: _169  and  _172
REMARK   77  A    between atoms: _172  and  _173
REMARK   78  A    between atoms: _176  and  _178
REMARK   79  A    between atoms: _178  and  _179
REMARK   80  A    between atoms: _178  and  _181
REMARK   81  A    between atoms: _181  and  _182
REMARK   82  A    between atoms: _184  and  _186
REMARK   83  A    between atoms: _186  and  _187
REMARK   84  A    between atoms: _189  and  _191
REMARK   85  A    between atoms: _191  and  _192
REMARK   86  A    between atoms: _194  and  _196
REMARK   87  A    between atoms: _196  and  _197
REMARK   88  A    between atoms: _196  and  _199
REMARK   89  A    between atoms: _199  and  _200
REMARK   90  A    between atoms: _203  and  _205
REMARK   91  A    between atoms: _205  and  _206
REMARK   92  A    between atoms: _205  and  _208
REMARK   93  A    between atoms: _211  and  _213
REMARK   94  A    between atoms: _213  and  _214
REMARK   95  A    between atoms: _213  and  _216
REMARK   96  A    between atoms: _216  and  _217
REMARK   97  A    between atoms: _219  and  _221
REMARK   98  A    between atoms: _221  and  _222
REMARK   99  A    between atoms: _221  and  _224
REMARK  100  A    between atoms: _224  and  _225
REMARK  101  A    between atoms: _235  and  _237
REMARK  102  A    between atoms: _237  and  _238
REMARK  103  A    between atoms: _240  and  _242
REMARK  104  A    between atoms: _242  and  _243
REMARK  105  A    between atoms: _242  and  _245
REMARK  106  A    between atoms: _245  and  _246
REMARK  107  A    between atoms: _248  and  _250
REMARK  108  A    between atoms: _250  and  _251
REMARK  109  A    between atoms: _253  and  _255
REMARK  110  A    between atoms: _255  and  _256
REMARK  111  A    between atoms: _255  and  _258
REMARK  112  A    between atoms: _258  and  _259
REMARK  113  A    between atoms: _260  and  _262
REMARK  114  A    between atoms: _262  and  _263
REMARK  115  A    between atoms: _266  and  _268
REMARK  116  A    between atoms: _268  and  _269
REMARK  117  A    between atoms: _268  and  _271
REMARK  118  A    between atoms: _271  and  _272
REMARK  119  A    between atoms: _272  and  _273
REMARK  120  A    between atoms: _278  and  _280
REMARK  121  A    between atoms: _280  and  _281
REMARK  122  A    between atoms: _280  and  _283
REMARK  123  A    between atoms: _283  and  _284
REMARK  124  A    between atoms: _284  and  _285
REMARK  125  A    between atoms: _285  and  _286
REMARK  126  A    between atoms: _286  and  _287
REMARK  127  A    between atoms: _292  and  _293
REMARK  128  A    between atoms: _298  and  _300
REMARK  129  A    between atoms: _300  and  _301
REMARK  130  A    between atoms: _303  and  _305
REMARK  131  A    between atoms: _305  and  _306
REMARK  132  A    between atoms: _305  and  _308
REMARK  133  A    between atoms: _311  and  _313
REMARK  134  A    between atoms: _313  and  _314
REMARK  135  A    between atoms: _313  and  _316
REMARK  136  A    between atoms: _316  and  _317
REMARK  137  A    between atoms: _322  and  _323
REMARK                            x       y       z     vdW  Elec       q    Type
REMARK                         _______ _______ _______ _____ _____    ______ ____
ROOT
ATOM      1  O   UNL     1       2.041 -12.752  10.133  0.00  0.00    +0.000 OA
ATOM      2  O   UNL     1       1.158 -11.636  10.781  0.00  0.00    +0.000 OA
ATOM      3  O   UNL     1       2.306 -10.467  11.044  0.00  0.00    +0.000 OA
ENDROOT
TORSDOF 0
REMARK  Name = ../refined-set-2016/4abf/4abf_pocket.pdb
REMARK  137 active torsions:
REMARK  status: ('A' for Active; 'I' for Inactive)
REMARK    1  A    between atoms: _1  and  _3
REMARK    2  A    between atoms: _3  and  _4
REMARK    3  A    between atoms: _3  and  _6
REMARK    4  A    between atoms: _9  and  _11
REMARK    5  A    between atoms: _11  and  _12
REMARK    6  A    between atoms: _11  and  _14
REMARK    7  A    between atoms: _14  and  _15
REMARK    8  A    between atoms: _20  and  _22
REMARK    9  A    between atoms: _22  and  _23
REMARK   10  A    between atoms: _22  and  _25
REMARK   11  A    between atoms: _25  and  _26
REMARK   12  A    between atoms: _29  and  _31
REMARK   13  A    between atoms: _31  and  _32
REMARK   14  A    between atoms: _31  and  _34
REMARK   15  A    between atoms: _34  and  _35
REMARK   16  A    between atoms: _38  and  _40
REMARK   17  A    between atoms: _40  and  _41
REMARK   18  A    between atoms: _40  and  _43
REMARK   19  A    between atoms: _43  and  _44
REMARK   20  A    between atoms: _47  and  _49
REMARK   21  A    between atoms: _49  and  _50
REMARK   22  A    between atoms: _49  and  _52
REMARK   23  A    between atoms: _52  and  _53
REMARK   24  A    between atoms: _58  and  _60
REMARK   25  A    between atoms: _60  and  _61
REMARK   26  A    between atoms: _60  and  _63
REMARK   27  A    between atoms: _63  and  _64
REMARK   28  A    between atoms: _64  and  _65
REMARK   29  A    between atoms: _65  and  _66
REMARK   30  A    between atoms: _66  and  _67
REMARK   31  A    between atoms: _71  and  _73
REMARK   32  A    between atoms: _73  and  _74
REMARK   33  A    between atoms: _73  and  _76
REMARK   34  A    between atoms: _76  and  _77
REMARK   35  A    between atoms: _79  and  _81
REMARK   36  A    between atoms: _81  and  _82
REMARK   37  A    between atoms: _81  and  _84
REMARK   38  A    between atoms: _84  and  _85
REMARK   39  A    between atoms: _90  and  _91
REMARK   40  A    between atoms: _93  and  _95
REMARK   41  A    between atoms: _95  and  _96
REMARK   42  A    between atoms: _95  and  _98
REMARK   43  A    between atoms: _98  and  _99
REMARK   44  A    between atoms: _104  and  _105
REMARK   45  A    between atoms: _107  and  _109
REMARK   46  A    between atoms: _109  and  _110
REMARK   47  A    between atoms: _113  and  _115
REMARK   48  A    between atoms: _115  and  _116
REMARK   49  A    between atoms: _115  and  _118
REMARK   50  A    between atoms: _118  and  _119
REMARK   51  A    between atoms: _119  and  _120
REMARK   52  A    between atoms: _120  and  _121
REMARK   53  A    between atoms: _121  and  _122
REMARK   54  A    between atoms: _126  and  _128
REMARK   55  A    between atoms: _128  and  _129
REMARK   56  A    between atoms: _128  and  _131
REMARK   57  A    between atoms: _131  and  _132
REMARK   58  A    between atoms: _135  and  _137
REMARK   59  A    between atoms: _137  and  _138
REMARK   60  A    between atoms: _137  and  _140
REMARK   61  A    between atoms: _140  and  _141
REMARK   62  A    between atoms: _143  and  _145
REMARK   63  A    between atoms: _145  and  _146
REMARK   64  A    between atoms: _145  and  _148
REMARK   65  A    between atoms: _148  and  _149
REMARK   66  A    between atoms: _149  and  _259
REMARK   67  A    between atoms: _150  and  _152
REMARK   68  A    between atoms: _152  and  _153
REMARK   69  A    between atoms: _152  and  _155
REMARK   70  A    between atoms: _155  and  _156
REMARK   71  A    between atoms: _156  and  _157
REMARK   72  A    between atoms: _162  and  _164
REMARK   73  A    between atoms: _164  and  _165
REMARK   74  A    between atoms: _167  and  _169
REMARK   75  A    between atoms: _169  and  _170
REMARK   76  A    between atoms: _169  and  _172
REMARK   77  A    between atoms: _172  and  _173
REMARK   78  A    between atoms: _176  and  _178
REMARK   79  A    between atoms: _178  and  _179
REMARK   80  A    between atoms: _178  and  _181
REMARK   81  A    between atoms: _181  and  _182
REMARK   82  A    between atoms: _184  and  _186
REMARK   83  A    between atoms: _186  and  _187
REMARK   84  A    between atoms: _189  and  _191
REMARK   85  A    between atoms: _191  and  _192
REMARK   86  A    between atoms: _194  and  _196
REMARK   87  A    between atoms: _196  and  _197
REMARK   88  A    between atoms: _196  and  _199
REMARK   89  A    between atoms: _199  and  _200
REMARK   90  A    between atoms: _203  and  _205
REMARK   91  A    between atoms: _205  and  _206
REMARK   92  A    between atoms: _205  and  _208
REMARK   93  A    between atoms: _211  and  _213
REMARK   94  A    between atoms: _213  and  _214
REMARK   95  A    between atoms: _213  and  _216
REMARK   96  A    between atoms: _216  and  _217
REMARK   97  A    between atoms: _219  and  _221
REMARK   98  A    between atoms: _221  and  _222
REMARK   99  A    between atoms: _221  and  _224
REMARK  100  A    between atoms: _224  and  _225
REMARK  101  A    between atoms: _235  and  _237
REMARK  102  A    between atoms: _237  and  _238
REMARK  103  A    between atoms: _240  and  _242
REMARK  104  A    between atoms: _242  and  _243
REMARK  105  A    between atoms: _242  and  _245
REMARK  106  A    between atoms: _245  and  _246
REMARK  107  A    between atoms: _248  and  _250
REMARK  108  A    between atoms: _250  and  _251
REMARK  109  A    between atoms: _253  and  _255
REMARK  110  A    between atoms: _255  and  _256
REMARK  111  A    between atoms: _255  and  _258
REMARK  112  A    between atoms: _258  and  _259
REMARK  113  A    between atoms: _260  and  _262
REMARK  114  A    between atoms: _262  and  _263
REMARK  115  A    between atoms: _266  and  _268
REMARK  116  A    between atoms: _268  and  _269
REMARK  117  A    between atoms: _268  and  _271
REMARK  118  A    between atoms: _271  and  _272
REMARK  119  A    between atoms: _272  and  _273
REMARK  120  A    between atoms: _278  and  _280
REMARK  121  A    between atoms: _280  and  _281
REMARK  122  A    between atoms: _280  and  _283
REMARK  123  A    between atoms: _283  and  _284
REMARK  124  A    between atoms: _284  and  _285
REMARK  125  A    between atoms: _285  and  _286
REMARK  126  A    between atoms: _286  and  _287
REMARK  127  A    between atoms: _292  and  _293
REMARK  128  A    between atoms: _298  and  _300
REMARK  129  A    between atoms: _300  and  _301
REMARK  130  A    between atoms: _303  and  _305
REMARK  131  A    between atoms: _305  and  _306
REMARK  132  A    between atoms: _305  and  _308
REMARK  133  A    between atoms: _311  and  _313
REMARK  134  A    between atoms: _313  and  _314
REMARK  135  A    between atoms: _313  and  _316
REMARK  136  A    between atoms: _316  and  _317
REMARK  137  A    between atoms: _322  and  _323
REMARK                            x       y       z     vdW  Elec       q    Type
REMARK                         _______ _______ _______ _____ _____    ______ ____
ROOT
ATOM      1  O   HOH     1       8.032  -9.786  17.843  0.00  0.00    +0.000 OA
ENDROOT
TORSDOF 0
REMARK  Name = ../refined-set-2016/4abf/4abf_pocket.pdb
REMARK  137 active torsions:
REMARK  status: ('A' for Active; 'I' for Inactive)
REMARK    1  A    between atoms: _1  and  _3
REMARK    2  A    between atoms: _3  and  _4
REMARK    3  A    between atoms: _3  and  _6
REMARK    4  A    between atoms: _9  and  _11
REMARK    5  A    between atoms: _11  and  _12
REMARK    6  A    between atoms: _11  and  _14
REMARK    7  A    between atoms: _14  and  _15
REMARK    8  A    between atoms: _20  and  _22
REMARK    9  A    between atoms: _22  and  _23
REMARK   10  A    between atoms: _22  and  _25
REMARK   11  A    between atoms: _25  and  _26
REMARK   12  A    between atoms: _29  and  _31
REMARK   13  A    between atoms: _31  and  _32
REMARK   14  A    between atoms: _31  and  _34
REMARK   15  A    between atoms: _34  and  _35
REMARK   16  A    between atoms: _38  and  _40
REMARK   17  A    between atoms: _40  and  _41
REMARK   18  A    between atoms: _40  and  _43
REMARK   19  A    between atoms: _43  and  _44
REMARK   20  A    between atoms: _47  and  _49
REMARK   21  A    between atoms: _49  and  _50
REMARK   22  A    between atoms: _49  and  _52
REMARK   23  A    between atoms: _52  and  _53
REMARK   24  A    between atoms: _58  and  _60
REMARK   25  A    between atoms: _60  and  _61
REMARK   26  A    between atoms: _60  and  _63
REMARK   27  A    between atoms: _63  and  _64
REMARK   28  A    between atoms: _64  and  _65
REMARK   29  A    between atoms: _65  and  _66
REMARK   30  A    between atoms: _66  and  _67
REMARK   31  A    between atoms: _71  and  _73
REMARK   32  A    between atoms: _73  and  _74
REMARK   33  A    between atoms: _73  and  _76
REMARK   34  A    between atoms: _76  and  _77
REMARK   35  A    between atoms: _79  and  _81
REMARK   36  A    between atoms: _81  and  _82
REMARK   37  A    between atoms: _81  and  _84
REMARK   38  A    between atoms: _84  and  _85
REMARK   39  A    between atoms: _90  and  _91
REMARK   40  A    between atoms: _93  and  _95
REMARK   41  A    between atoms: _95  and  _96
REMARK   42  A    between atoms: _95  and  _98
REMARK   43  A    between atoms: _98  and  _99
REMARK   44  A    between atoms: _104  and  _105
REMARK   45  A    between atoms: _107  and  _109
REMARK   46  A    between atoms: _109  and  _110
REMARK   47  A    between atoms: _113  and  _115
REMARK   48  A    between atoms: _115  and  _116
REMARK   49  A    between atoms: _115  and  _118
REMARK   50  A    between atoms: _118  and  _119
REMARK   51  A    between atoms: _119  and  _120
REMARK   52  A    between atoms: _120  and  _121
REMARK   53  A    between atoms: _121  and  _122
REMARK   54  A    between atoms: _126  and  _128
REMARK   55  A    between atoms: _128  and  _129
REMARK   56  A    between atoms: _128  and  _131
REMARK   57  A    between atoms: _131  and  _132
REMARK   58  A    between atoms: _135  and  _137
REMARK   59  A    between atoms: _137  and  _138
REMARK   60  A    between atoms: _137  and  _140
REMARK   61  A    between atoms: _140  and  _141
REMARK   62  A    between atoms: _143  and  _145
REMARK   63  A    between atoms: _145  and  _146
REMARK   64  A    between atoms: _145  and  _148
REMARK   65  A    between atoms: _148  and  _149
REMARK   66  A    between atoms: _149  and  _259
REMARK   67  A    between atoms: _150  and  _152
REMARK   68  A    between atoms: _152  and  _153
REMARK   69  A    between atoms: _152  and  _155
REMARK   70  A    between atoms: _155  and  _156
REMARK   71  A    between atoms: _156  and  _157
REMARK   72  A    between atoms: _162  and  _164
REMARK   73  A    between atoms: _164  and  _165
REMARK   74  A    between atoms: _167  and  _169
REMARK   75  A    between atoms: _169  and  _170
REMARK   76  A    between atoms: _169  and  _172
REMARK   77  A    between atoms: _172  and  _173
REMARK   78  A    between atoms: _176  and  _178
REMARK   79  A    between atoms: _178  and  _179
REMARK   80  A    between atoms: _178  and  _181
REMARK   81  A    between atoms: _181  and  _182
REMARK   82  A    between atoms: _184  and  _186
REMARK   83  A    between atoms: _186  and  _187
REMARK   84  A    between atoms: _189  and  _191
REMARK   85  A    between atoms: _191  and  _192
REMARK   86  A    between atoms: _194  and  _196
REMARK   87  A    between atoms: _196  and  _197
REMARK   88  A    between atoms: _196  and  _199
REMARK   89  A    between atoms: _199  and  _200
REMARK   90  A    between atoms: _203  and  _205
REMARK   91  A    between atoms: _205  and  _206
REMARK   92  A    between atoms: _205  and  _208
REMARK   93  A    between atoms: _211  and  _213
REMARK   94  A    between atoms: _213  and  _214
REMARK   95  A    between atoms: _213  and  _216
REMARK   96  A    between atoms: _216  and  _217
REMARK   97  A    between atoms: _219  and  _221
REMARK   98  A    between atoms: _221  and  _222
REMARK   99  A    between atoms: _221  and  _224
REMARK  100  A    between atoms: _224  and  _225
REMARK  101  A    between atoms: _235  and  _237
REMARK  102  A    between atoms: _237  and  _238
REMARK  103  A    between atoms: _240  and  _242
REMARK  104  A    between atoms: _242  and  _243
REMARK  105  A    between atoms: _242  and  _245
REMARK  106  A    between atoms: _245  and  _246
REMARK  107  A    between atoms: _248  and  _250
REMARK  108  A    between atoms: _250  and  _251
REMARK  109  A    between atoms: _253  and  _255
REMARK  110  A    between atoms: _255  and  _256
REMARK  111  A    between atoms: _255  and  _258
REMARK  112  A    between atoms: _258  and  _259
REMARK  113  A    between atoms: _260  and  _262
REMARK  114  A    between atoms: _262  and  _263
REMARK  115  A    between atoms: _266  and  _268
REMARK  116  A    between atoms: _268  and  _269
REMARK  117  A    between atoms: _268  and  _271
REMARK  118  A    between atoms: _271  and  _272
REMARK  119  A    between atoms: _272  and  _273
REMARK  120  A    between atoms: _278  and  _280
REMARK  121  A    between atoms: _280  and  _281
REMARK  122  A    between atoms: _280  and  _283
REMARK  123  A    between atoms: _283  and  _284
REMARK  124  A    between atoms: _284  and  _285
REMARK  125  A    between atoms: _285  and  _286
REMARK  126  A    between atoms: _286  and  _287
REMARK  127  A    between atoms: _292  and  _293
REMARK  128  A    between atoms: _298  and  _300
REMARK  129  A    between atoms: _300  and  _301
REMARK  130  A    between atoms: _303  and  _305
REMARK  131  A    between atoms: _305  and  _306
REMARK  132  A    between atoms: _305  and  _308
REMARK  133  A    between atoms: _311  and  _313
REMARK  134  A    between atoms: _313  and  _314
REMARK  135  A    between atoms: _313  and  _316
REMARK  136  A    between atoms: _316  and  _317
REMARK  137  A    between atoms: _322  and  _323
REMARK                            x       y       z     vdW  Elec       q    Type
REMARK                         _______ _______ _______ _____ _____    ______ ____
ROOT
ATOM      1  O   HOH     1      -1.640 -11.513  14.165  0.00  0.00    +0.000 OA
ENDROOT
TORSDOF 0
REMARK  Name = ../refined-set-2016/4abf/4abf_pocket.pdb
REMARK  137 active torsions:
REMARK  status: ('A' for Active; 'I' for Inactive)
REMARK    1  A    between atoms: _1  and  _3
REMARK    2  A    between atoms: _3  and  _4
REMARK    3  A    between atoms: _3  and  _6
REMARK    4  A    between atoms: _9  and  _11
REMARK    5  A    between atoms: _11  and  _12
REMARK    6  A    between atoms: _11  and  _14
REMARK    7  A    between atoms: _14  and  _15
REMARK    8  A    between atoms: _20  and  _22
REMARK    9  A    between atoms: _22  and  _23
REMARK   10  A    between atoms: _22  and  _25
REMARK   11  A    between atoms: _25  and  _26
REMARK   12  A    between atoms: _29  and  _31
REMARK   13  A    between atoms: _31  and  _32
REMARK   14  A    between atoms: _31  and  _34
REMARK   15  A    between atoms: _34  and  _35
REMARK   16  A    between atoms: _38  and  _40
REMARK   17  A    between atoms: _40  and  _41
REMARK   18  A    between atoms: _40  and  _43
REMARK   19  A    between atoms: _43  and  _44
REMARK   20  A    between atoms: _47  and  _49
REMARK   21  A    between atoms: _49  and  _50
REMARK   22  A    between atoms: _49  and  _52
REMARK   23  A    between atoms: _52  and  _53
REMARK   24  A    between atoms: _58  and  _60
REMARK   25  A    between atoms: _60  and  _61
REMARK   26  A    between atoms: _60  and  _63
REMARK   27  A    between atoms: _63  and  _64
REMARK   28  A    between atoms: _64  and  _65
REMARK   29  A    between atoms: _65  and  _66
REMARK   30  A    between atoms: _66  and  _67
REMARK   31  A    between atoms: _71  and  _73
REMARK   32  A    between atoms: _73  and  _74
REMARK   33  A    between atoms: _73  and  _76
REMARK   34  A    between atoms: _76  and  _77
REMARK   35  A    between atoms: _79  and  _81
REMARK   36  A    between atoms: _81  and  _82
REMARK   37  A    between atoms: _81  and  _84
REMARK   38  A    between atoms: _84  and  _85
REMARK   39  A    between atoms: _90  and  _91
REMARK   40  A    between atoms: _93  and  _95
REMARK   41  A    between atoms: _95  and  _96
REMARK   42  A    between atoms: _95  and  _98
REMARK   43  A    between atoms: _98  and  _99
REMARK   44  A    between atoms: _104  and  _105
REMARK   45  A    between atoms: _107  and  _109
REMARK   46  A    between atoms: _109  and  _110
REMARK   47  A    between atoms: _113  and  _115
REMARK   48  A    between atoms: _115  and  _116
REMARK   49  A    between atoms: _115  and  _118
REMARK   50  A    between atoms: _118  and  _119
REMARK   51  A    between atoms: _119  and  _120
REMARK   52  A    between atoms: _120  and  _121
REMARK   53  A    between atoms: _121  and  _122
REMARK   54  A    between atoms: _126  and  _128
REMARK   55  A    between atoms: _128  and  _129
REMARK   56  A    between atoms: _128  and  _131
REMARK   57  A    between atoms: _131  and  _132
REMARK   58  A    between atoms: _135  and  _137
REMARK   59  A    between atoms: _137  and  _138
REMARK   60  A    between atoms: _137  and  _140
REMARK   61  A    between atoms: _140  and  _141
REMARK   62  A    between atoms: _143  and  _145
REMARK   63  A    between atoms: _145  and  _146
REMARK   64  A    between atoms: _145  and  _148
REMARK   65  A    between atoms: _148  and  _149
REMARK   66  A    between atoms: _149  and  _259
REMARK   67  A    between atoms: _150  and  _152
REMARK   68  A    between atoms: _152  and  _153
REMARK   69  A    between atoms: _152  and  _155
REMARK   70  A    between atoms: _155  and  _156
REMARK   71  A    between atoms: _156  and  _157
REMARK   72  A    between atoms: _162  and  _164
REMARK   73  A    between atoms: _164  and  _165
REMARK   74  A    between atoms: _167  and  _169
REMARK   75  A    between atoms: _169  and  _170
REMARK   76  A    between atoms: _169  and  _172
REMARK   77  A    between atoms: _172  and  _173
REMARK   78  A    between atoms: _176  and  _178
REMARK   79  A    between atoms: _178  and  _179
REMARK   80  A    between atoms: _178  and  _181
REMARK   81  A    between atoms: _181  and  _182
REMARK   82  A    between atoms: _184  and  _186
REMARK   83  A    between atoms: _186  and  _187
REMARK   84  A    between atoms: _189  and  _191
REMARK   85  A    between atoms: _191  and  _192
REMARK   86  A    between atoms: _194  and  _196
REMARK   87  A    between atoms: _196  and  _197
REMARK   88  A    between atoms: _196  and  _199
REMARK   89  A    between atoms: _199  and  _200
REMARK   90  A    between atoms: _203  and  _205
REMARK   91  A    between atoms: _205  and  _206
REMARK   92  A    between atoms: _205  and  _208
REMARK   93  A    between atoms: _211  and  _213
REMARK   94  A    between atoms: _213  and  _214
REMARK   95  A    between atoms: _213  and  _216
REMARK   96  A    between atoms: _216  and  _217
REMARK   97  A    between atoms: _219  and  _221
REMARK   98  A    between atoms: _221  and  _222
REMARK   99  A    between atoms: _221  and  _224
REMARK  100  A    between atoms: _224  and  _225
REMARK  101  A    between atoms: _235  and  _237
REMARK  102  A    between atoms: _237  and  _238
REMARK  103  A    between atoms: _240  and  _242
REMARK  104  A    between atoms: _242  and  _243
REMARK  105  A    between atoms: _242  and  _245
REMARK  106  A    between atoms: _245  and  _246
REMARK  107  A    between atoms: _248  and  _250
REMARK  108  A    between atoms: _250  and  _251
REMARK  109  A    between atoms: _253  and  _255
REMARK  110  A    between atoms: _255  and  _256
REMARK  111  A    between atoms: _255  and  _258
REMARK  112  A    between atoms: _258  and  _259
REMARK  113  A    between atoms: _260  and  _262
REMARK  114  A    between atoms: _262  and  _263
REMARK  115  A    between atoms: _266  and  _268
REMARK  116  A    between atoms: _268  and  _269
REMARK  117  A    between atoms: _268  and  _271
REMARK  118  A    between atoms: _271  and  _272
REMARK  119  A    between atoms: _272  and  _273
REMARK  120  A    between atoms: _278  and  _280
REMARK  121  A    between atoms: _280  and  _281
REMARK  122  A    between atoms: _280  and  _283
REMARK  123  A    between atoms: _283  and  _284
REMARK  124  A    between atoms: _284  and  _285
REMARK  125  A    between atoms: _285  and  _286
REMARK  126  A    between atoms: _286  and  _287
REMARK  127  A    between atoms: _292  and  _293
REMARK  128  A    between atoms: _298  and  _300
REMARK  129  A    between atoms: _300  and  _301
REMARK  130  A    between atoms: _303  and  _305
REMARK  131  A    between atoms: _305  and  _306
REMARK  132  A    between atoms: _305  and  _308
REMARK  133  A    between atoms: _311  and  _313
REMARK  134  A    between atoms: _313  and  _314
REMARK  135  A    between atoms: _313  and  _316
REMARK  136  A    between atoms: _316  and  _317
REMARK  137  A    between atoms: _322  and  _323
REMARK                            x       y       z     vdW  Elec       q    Type
REMARK                         _______ _______ _______ _____ _____    ______ ____
ROOT
ATOM      1  O   HOH     1      -0.285 -10.921  16.621  0.00  0.00    +0.000 OA
ENDROOT
TORSDOF 0
REMARK  Name = ../refined-set-2016/4abf/4abf_pocket.pdb
REMARK  137 active torsions:
REMARK  status: ('A' for Active; 'I' for Inactive)
REMARK    1  A    between atoms: _1  and  _3
REMARK    2  A    between atoms: _3  and  _4
REMARK    3  A    between atoms: _3  and  _6
REMARK    4  A    between atoms: _9  and  _11
REMARK    5  A    between atoms: _11  and  _12
REMARK    6  A    between atoms: _11  and  _14
REMARK    7  A    between atoms: _14  and  _15
REMARK    8  A    between atoms: _20  and  _22
REMARK    9  A    between atoms: _22  and  _23
REMARK   10  A    between atoms: _22  and  _25
REMARK   11  A    between atoms: _25  and  _26
REMARK   12  A    between atoms: _29  and  _31
REMARK   13  A    between atoms: _31  and  _32
REMARK   14  A    between atoms: _31  and  _34
REMARK   15  A    between atoms: _34  and  _35
REMARK   16  A    between atoms: _38  and  _40
REMARK   17  A    between atoms: _40  and  _41
REMARK   18  A    between atoms: _40  and  _43
REMARK   19  A    between atoms: _43  and  _44
REMARK   20  A    between atoms: _47  and  _49
REMARK   21  A    between atoms: _49  and  _50
REMARK   22  A    between atoms: _49  and  _52
REMARK   23  A    between atoms: _52  and  _53
REMARK   24  A    between atoms: _58  and  _60
REMARK   25  A    between atoms: _60  and  _61
REMARK   26  A    between atoms: _60  and  _63
REMARK   27  A    between atoms: _63  and  _64
REMARK   28  A    between atoms: _64  and  _65
REMARK   29  A    between atoms: _65  and  _66
REMARK   30  A    between atoms: _66  and  _67
REMARK   31  A    between atoms: _71  and  _73
REMARK   32  A    between atoms: _73  and  _74
REMARK   33  A    between atoms: _73  and  _76
REMARK   34  A    between atoms: _76  and  _77
REMARK   35  A    between atoms: _79  and  _81
REMARK   36  A    between atoms: _81  and  _82
REMARK   37  A    between atoms: _81  and  _84
REMARK   38  A    between atoms: _84  and  _85
REMARK   39  A    between atoms: _90  and  _91
REMARK   40  A    between atoms: _93  and  _95
REMARK   41  A    between atoms: _95  and  _96
REMARK   42  A    between atoms: _95  and  _98
REMARK   43  A    between atoms: _98  and  _99
REMARK   44  A    between atoms: _104  and  _105
REMARK   45  A    between atoms: _107  and  _109
REMARK   46  A    between atoms: _109  and  _110
REMARK   47  A    between atoms: _113  and  _115
REMARK   48  A    between atoms: _115  and  _116
REMARK   49  A    between atoms: _115  and  _118
REMARK   50  A    between atoms: _118  and  _119
REMARK   51  A    between atoms: _119  and  _120
REMARK   52  A    between atoms: _120  and  _121
REMARK   53  A    between atoms: _121  and  _122
REMARK   54  A    between atoms: _126  and  _128
REMARK   55  A    between atoms: _128  and  _129
REMARK   56  A    between atoms: _128  and  _131
REMARK   57  A    between atoms: _131  and  _132
REMARK   58  A    between atoms: _135  and  _137
REMARK   59  A    between atoms: _137  and  _138
REMARK   60  A    between atoms: _137  and  _140
REMARK   61  A    between atoms: _140  and  _141
REMARK   62  A    between atoms: _143  and  _145
REMARK   63  A    between atoms: _145  and  _146
REMARK   64  A    between atoms: _145  and  _148
REMARK   65  A    between atoms: _148  and  _149
REMARK   66  A    between atoms: _149  and  _259
REMARK   67  A    between atoms: _150  and  _152
REMARK   68  A    between atoms: _152  and  _153
REMARK   69  A    between atoms: _152  and  _155
REMARK   70  A    between atoms: _155  and  _156
REMARK   71  A    between atoms: _156  and  _157
REMARK   72  A    between atoms: _162  and  _164
REMARK   73  A    between atoms: _164  and  _165
REMARK   74  A    between atoms: _167  and  _169
REMARK   75  A    between atoms: _169  and  _170
REMARK   76  A    between atoms: _169  and  _172
REMARK   77  A    between atoms: _172  and  _173
REMARK   78  A    between atoms: _176  and  _178
REMARK   79  A    between atoms: _178  and  _179
REMARK   80  A    between atoms: _178  and  _181
REMARK   81  A    between atoms: _181  and  _182
REMARK   82  A    between atoms: _184  and  _186
REMARK   83  A    between atoms: _186  and  _187
REMARK   84  A    between atoms: _189  and  _191
REMARK   85  A    between atoms: _191  and  _192
REMARK   86  A    between atoms: _194  and  _196
REMARK   87  A    between atoms: _196  and  _197
REMARK   88  A    between atoms: _196  and  _199
REMARK   89  A    between atoms: _199  and  _200
REMARK   90  A    between atoms: _203  and  _205
REMARK   91  A    between atoms: _205  and  _206
REMARK   92  A    between atoms: _205  and  _208
REMARK   93  A    between atoms: _211  and  _213
REMARK   94  A    between atoms: _213  and  _214
REMARK   95  A    between atoms: _213  and  _216
REMARK   96  A    between atoms: _216  and  _217
REMARK   97  A    between atoms: _219  and  _221
REMARK   98  A    between atoms: _221  and  _222
REMARK   99  A    between atoms: _221  and  _224
REMARK  100  A    between atoms: _224  and  _225
REMARK  101  A    between atoms: _235  and  _237
REMARK  102  A    between atoms: _237  and  _238
REMARK  103  A    between atoms: _240  and  _242
REMARK  104  A    between atoms: _242  and  _243
REMARK  105  A    between atoms: _242  and  _245
REMARK  106  A    between atoms: _245  and  _246
REMARK  107  A    between atoms: _248  and  _250
REMARK  108  A    between atoms: _250  and  _251
REMARK  109  A    between atoms: _253  and  _255
REMARK  110  A    between atoms: _255  and  _256
REMARK  111  A    between atoms: _255  and  _258
REMARK  112  A    between atoms: _258  and  _259
REMARK  113  A    between atoms: _260  and  _262
REMARK  114  A    between atoms: _262  and  _263
REMARK  115  A    between atoms: _266  and  _268
REMARK  116  A    between atoms: _268  and  _269
REMARK  117  A    between atoms: _268  and  _271
REMARK  118  A    between atoms: _271  and  _272
REMARK  119  A    between atoms: _272  and  _273
REMARK  120  A    between atoms: _278  and  _280
REMARK  121  A    between atoms: _280  and  _281
REMARK  122  A    between atoms: _280  and  _283
REMARK  123  A    between atoms: _283  and  _284
REMARK  124  A    between atoms: _284  and  _285
REMARK  125  A    between atoms: _285  and  _286
REMARK  126  A    between atoms: _286  and  _287
REMARK  127  A    between atoms: _292  and  _293
REMARK  128  A    between atoms: _298  and  _300
REMARK  129  A    between atoms: _300  and  _301
REMARK  130  A    between atoms: _303  and  _305
REMARK  131  A    between atoms: _305  and  _306
REMARK  132  A    between atoms: _305  and  _308
REMARK  133  A    between atoms: _311  and  _313
REMARK  134  A    between atoms: _313  and  _314
REMARK  135  A    between atoms: _313  and  _316
REMARK  136  A    between atoms: _316  and  _317
REMARK  137  A    between atoms: _322  and  _323
REMARK                            x       y       z     vdW  Elec       q    Type
REMARK                         _______ _______ _______ _____ _____    ______ ____
ROOT
ATOM      1  O   HOH     1      -1.452  -9.233  18.379  0.00  0.00    +0.000 OA
ENDROOT
TORSDOF 0
REMARK  Name = ../refined-set-2016/4abf/4abf_pocket.pdb
REMARK  137 active torsions:
REMARK  status: ('A' for Active; 'I' for Inactive)
REMARK    1  A    between atoms: _1  and  _3
REMARK    2  A    between atoms: _3  and  _4
REMARK    3  A    between atoms: _3  and  _6
REMARK    4  A    between atoms: _9  and  _11
REMARK    5  A    between atoms: _11  and  _12
REMARK    6  A    between atoms: _11  and  _14
REMARK    7  A    between atoms: _14  and  _15
REMARK    8  A    between atoms: _20  and  _22
REMARK    9  A    between atoms: _22  and  _23
REMARK   10  A    between atoms: _22  and  _25
REMARK   11  A    between atoms: _25  and  _26
REMARK   12  A    between atoms: _29  and  _31
REMARK   13  A    between atoms: _31  and  _32
REMARK   14  A    between atoms: _31  and  _34
REMARK   15  A    between atoms: _34  and  _35
REMARK   16  A    between atoms: _38  and  _40
REMARK   17  A    between atoms: _40  and  _41
REMARK   18  A    between atoms: _40  and  _43
REMARK   19  A    between atoms: _43  and  _44
REMARK   20  A    between atoms: _47  and  _49
REMARK   21  A    between atoms: _49  and  _50
REMARK   22  A    between atoms: _49  and  _52
REMARK   23  A    between atoms: _52  and  _53
REMARK   24  A    between atoms: _58  and  _60
REMARK   25  A    between atoms: _60  and  _61
REMARK   26  A    between atoms: _60  and  _63
REMARK   27  A    between atoms: _63  and  _64
REMARK   28  A    between atoms: _64  and  _65
REMARK   29  A    between atoms: _65  and  _66
REMARK   30  A    between atoms: _66  and  _67
REMARK   31  A    between atoms: _71  and  _73
REMARK   32  A    between atoms: _73  and  _74
REMARK   33  A    between atoms: _73  and  _76
REMARK   34  A    between atoms: _76  and  _77
REMARK   35  A    between atoms: _79  and  _81
REMARK   36  A    between atoms: _81  and  _82
REMARK   37  A    between atoms: _81  and  _84
REMARK   38  A    between atoms: _84  and  _85
REMARK   39  A    between atoms: _90  and  _91
REMARK   40  A    between atoms: _93  and  _95
REMARK   41  A    between atoms: _95  and  _96
REMARK   42  A    between atoms: _95  and  _98
REMARK   43  A    between atoms: _98  and  _99
REMARK   44  A    between atoms: _104  and  _105
REMARK   45  A    between atoms: _107  and  _109
REMARK   46  A    between atoms: _109  and  _110
REMARK   47  A    between atoms: _113  and  _115
REMARK   48  A    between atoms: _115  and  _116
REMARK   49  A    between atoms: _115  and  _118
REMARK   50  A    between atoms: _118  and  _119
REMARK   51  A    between atoms: _119  and  _120
REMARK   52  A    between atoms: _120  and  _121
REMARK   53  A    between atoms: _121  and  _122
REMARK   54  A    between atoms: _126  and  _128
REMARK   55  A    between atoms: _128  and  _129
REMARK   56  A    between atoms: _128  and  _131
REMARK   57  A    between atoms: _131  and  _132
REMARK   58  A    between atoms: _135  and  _137
REMARK   59  A    between atoms: _137  and  _138
REMARK   60  A    between atoms: _137  and  _140
REMARK   61  A    between atoms: _140  and  _141
REMARK   62  A    between atoms: _143  and  _145
REMARK   63  A    between atoms: _145  and  _146
REMARK   64  A    between atoms: _145  and  _148
REMARK   65  A    between atoms: _148  and  _149
REMARK   66  A    between atoms: _149  and  _259
REMARK   67  A    between atoms: _150  and  _152
REMARK   68  A    between atoms: _152  and  _153
REMARK   69  A    between atoms: _152  and  _155
REMARK   70  A    between atoms: _155  and  _156
REMARK   71  A    between atoms: _156  and  _157
REMARK   72  A    between atoms: _162  and  _164
REMARK   73  A    between atoms: _164  and  _165
REMARK   74  A    between atoms: _167  and  _169
REMARK   75  A    between atoms: _169  and  _170
REMARK   76  A    between atoms: _169  and  _172
REMARK   77  A    between atoms: _172  and  _173
REMARK   78  A    between atoms: _176  and  _178
REMARK   79  A    between atoms: _178  and  _179
REMARK   80  A    between atoms: _178  and  _181
REMARK   81  A    between atoms: _181  and  _182
REMARK   82  A    between atoms: _184  and  _186
REMARK   83  A    between atoms: _186  and  _187
REMARK   84  A    between atoms: _189  and  _191
REMARK   85  A    between atoms: _191  and  _192
REMARK   86  A    between atoms: _194  and  _196
REMARK   87  A    between atoms: _196  and  _197
REMARK   88  A    between atoms: _196  and  _199
REMARK   89  A    between atoms: _199  and  _200
REMARK   90  A    between atoms: _203  and  _205
REMARK   91  A    between atoms: _205  and  _206
REMARK   92  A    between atoms: _205  and  _208
REMARK   93  A    between atoms: _211  and  _213
REMARK   94  A    between atoms: _213  and  _214
REMARK   95  A    between atoms: _213  and  _216
REMARK   96  A    between atoms: _216  and  _217
REMARK   97  A    between atoms: _219  and  _221
REMARK   98  A    between atoms: _221  and  _222
REMARK   99  A    between atoms: _221  and  _224
REMARK  100  A    between atoms: _224  and  _225
REMARK  101  A    between atoms: _235  and  _237
REMARK  102  A    between atoms: _237  and  _238
REMARK  103  A    between atoms: _240  and  _242
REMARK  104  A    between atoms: _242  and  _243
REMARK  105  A    between atoms: _242  and  _245
REMARK  106  A    between atoms: _245  and  _246
REMARK  107  A    between atoms: _248  and  _250
REMARK  108  A    between atoms: _250  and  _251
REMARK  109  A    between atoms: _253  and  _255
REMARK  110  A    between atoms: _255  and  _256
REMARK  111  A    between atoms: _255  and  _258
REMARK  112  A    between atoms: _258  and  _259
REMARK  113  A    between atoms: _260  and  _262
REMARK  114  A    between atoms: _262  and  _263
REMARK  115  A    between atoms: _266  and  _268
REMARK  116  A    between atoms: _268  and  _269
REMARK  117  A    between atoms: _268  and  _271
REMARK  118  A    between atoms: _271  and  _272
REMARK  119  A    between atoms: _272  and  _273
REMARK  120  A    between atoms: _278  and  _280
REMARK  121  A    between atoms: _280  and  _281
REMARK  122  A    between atoms: _280  and  _283
REMARK  123  A    between atoms: _283  and  _284
REMARK  124  A    between atoms: _284  and  _285
REMARK  125  A    between atoms: _285  and  _286
REMARK  126  A    between atoms: _286  and  _287
REMARK  127  A    between atoms: _292  and  _293
REMARK  128  A    between atoms: _298  and  _300
REMARK  129  A    between atoms: _300  and  _301
REMARK  130  A    between atoms: _303  and  _305
REMARK  131  A    between atoms: _305  and  _306
REMARK  132  A    between atoms: _305  and  _308
REMARK  133  A    between atoms: _311  and  _313
REMARK  134  A    between atoms: _313  and  _314
REMARK  135  A    between atoms: _313  and  _316
REMARK  136  A    between atoms: _316  and  _317
REMARK  137  A    between atoms: _322  and  _323
REMARK                            x       y       z     vdW  Elec       q    Type
REMARK                         _______ _______ _______ _____ _____    ______ ____
ROOT
ATOM      1  O   HOH     1      -1.283  -8.383  21.058  0.00  0.00    +0.000 OA
ENDROOT
TORSDOF 0
REMARK  Name = ../refined-set-2016/4abf/4abf_pocket.pdb
REMARK  137 active torsions:
REMARK  status: ('A' for Active; 'I' for Inactive)
REMARK    1  A    between atoms: _1  and  _3
REMARK    2  A    between atoms: _3  and  _4
REMARK    3  A    between atoms: _3  and  _6
REMARK    4  A    between atoms: _9  and  _11
REMARK    5  A    between atoms: _11  and  _12
REMARK    6  A    between atoms: _11  and  _14
REMARK    7  A    between atoms: _14  and  _15
REMARK    8  A    between atoms: _20  and  _22
REMARK    9  A    between atoms: _22  and  _23
REMARK   10  A    between atoms: _22  and  _25
REMARK   11  A    between atoms: _25  and  _26
REMARK   12  A    between atoms: _29  and  _31
REMARK   13  A    between atoms: _31  and  _32
REMARK   14  A    between atoms: _31  and  _34
REMARK   15  A    between atoms: _34  and  _35
REMARK   16  A    between atoms: _38  and  _40
REMARK   17  A    between atoms: _40  and  _41
REMARK   18  A    between atoms: _40  and  _43
REMARK   19  A    between atoms: _43  and  _44
REMARK   20  A    between atoms: _47  and  _49
REMARK   21  A    between atoms: _49  and  _50
REMARK   22  A    between atoms: _49  and  _52
REMARK   23  A    between atoms: _52  and  _53
REMARK   24  A    between atoms: _58  and  _60
REMARK   25  A    between atoms: _60  and  _61
REMARK   26  A    between atoms: _60  and  _63
REMARK   27  A    between atoms: _63  and  _64
REMARK   28  A    between atoms: _64  and  _65
REMARK   29  A    between atoms: _65  and  _66
REMARK   30  A    between atoms: _66  and  _67
REMARK   31  A    between atoms: _71  and  _73
REMARK   32  A    between atoms: _73  and  _74
REMARK   33  A    between atoms: _73  and  _76
REMARK   34  A    between atoms: _76  and  _77
REMARK   35  A    between atoms: _79  and  _81
REMARK   36  A    between atoms: _81  and  _82
REMARK   37  A    between atoms: _81  and  _84
REMARK   38  A    between atoms: _84  and  _85
REMARK   39  A    between atoms: _90  and  _91
REMARK   40  A    between atoms: _93  and  _95
REMARK   41  A    between atoms: _95  and  _96
REMARK   42  A    between atoms: _95  and  _98
REMARK   43  A    between atoms: _98  and  _99
REMARK   44  A    between atoms: _104  and  _105
REMARK   45  A    between atoms: _107  and  _109
REMARK   46  A    between atoms: _109  and  _110
REMARK   47  A    between atoms: _113  and  _115
REMARK   48  A    between atoms: _115  and  _116
REMARK   49  A    between atoms: _115  and  _118
REMARK   50  A    between atoms: _118  and  _119
REMARK   51  A    between atoms: _119  and  _120
REMARK   52  A    between atoms: _120  and  _121
REMARK   53  A    between atoms: _121  and  _122
REMARK   54  A    between atoms: _126  and  _128
REMARK   55  A    between atoms: _128  and  _129
REMARK   56  A    between atoms: _128  and  _131
REMARK   57  A    between atoms: _131  and  _132
REMARK   58  A    between atoms: _135  and  _137
REMARK   59  A    between atoms: _137  and  _138
REMARK   60  A    between atoms: _137  and  _140
REMARK   61  A    between atoms: _140  and  _141
REMARK   62  A    between atoms: _143  and  _145
REMARK   63  A    between atoms: _145  and  _146
REMARK   64  A    between atoms: _145  and  _148
REMARK   65  A    between atoms: _148  and  _149
REMARK   66  A    between atoms: _149  and  _259
REMARK   67  A    between atoms: _150  and  _152
REMARK   68  A    between atoms: _152  and  _153
REMARK   69  A    between atoms: _152  and  _155
REMARK   70  A    between atoms: _155  and  _156
REMARK   71  A    between atoms: _156  and  _157
REMARK   72  A    between atoms: _162  and  _164
REMARK   73  A    between atoms: _164  and  _165
REMARK   74  A    between atoms: _167  and  _169
REMARK   75  A    between atoms: _169  and  _170
REMARK   76  A    between atoms: _169  and  _172
REMARK   77  A    between atoms: _172  and  _173
REMARK   78  A    between atoms: _176  and  _178
REMARK   79  A    between atoms: _178  and  _179
REMARK   80  A    between atoms: _178  and  _181
REMARK   81  A    between atoms: _181  and  _182
REMARK   82  A    between atoms: _184  and  _186
REMARK   83  A    between atoms: _186  and  _187
REMARK   84  A    between atoms: _189  and  _191
REMARK   85  A    between atoms: _191  and  _192
REMARK   86  A    between atoms: _194  and  _196
REMARK   87  A    between atoms: _196  and  _197
REMARK   88  A    between atoms: _196  and  _199
REMARK   89  A    between atoms: _199  and  _200
REMARK   90  A    between atoms: _203  and  _205
REMARK   91  A    between atoms: _205  and  _206
REMARK   92  A    between atoms: _205  and  _208
REMARK   93  A    between atoms: _211  and  _213
REMARK   94  A    between atoms: _213  and  _214
REMARK   95  A    between atoms: _213  and  _216
REMARK   96  A    between atoms: _216  and  _217
REMARK   97  A    between atoms: _219  and  _221
REMARK   98  A    between atoms: _221  and  _222
REMARK   99  A    between atoms: _221  and  _224
REMARK  100  A    between atoms: _224  and  _225
REMARK  101  A    between atoms: _235  and  _237
REMARK  102  A    between atoms: _237  and  _238
REMARK  103  A    between atoms: _240  and  _242
REMARK  104  A    between atoms: _242  and  _243
REMARK  105  A    between atoms: _242  and  _245
REMARK  106  A    between atoms: _245  and  _246
REMARK  107  A    between atoms: _248  and  _250
REMARK  108  A    between atoms: _250  and  _251
REMARK  109  A    between atoms: _253  and  _255
REMARK  110  A    between atoms: _255  and  _256
REMARK  111  A    between atoms: _255  and  _258
REMARK  112  A    between atoms: _258  and  _259
REMARK  113  A    between atoms: _260  and  _262
REMARK  114  A    between atoms: _262  and  _263
REMARK  115  A    between atoms: _266  and  _268
REMARK  116  A    between atoms: _268  and  _269
REMARK  117  A    between atoms: _268  and  _271
REMARK  118  A    between atoms: _271  and  _272
REMARK  119  A    between atoms: _272  and  _273
REMARK  120  A    between atoms: _278  and  _280
REMARK  121  A    between atoms: _280  and  _281
REMARK  122  A    between atoms: _280  and  _283
REMARK  123  A    between atoms: _283  and  _284
REMARK  124  A    between atoms: _284  and  _285
REMARK  125  A    between atoms: _285  and  _286
REMARK  126  A    between atoms: _286  and  _287
REMARK  127  A    between atoms: _292  and  _293
REMARK  128  A    between atoms: _298  and  _300
REMARK  129  A    between atoms: _300  and  _301
REMARK  130  A    between atoms: _303  and  _305
REMARK  131  A    between atoms: _305  and  _306
REMARK  132  A    between atoms: _305  and  _308
REMARK  133  A    between atoms: _311  and  _313
REMARK  134  A    between atoms: _313  and  _314
REMARK  135  A    between atoms: _313  and  _316
REMARK  136  A    between atoms: _316  and  _317
REMARK  137  A    between atoms: _322  and  _323
REMARK                            x       y       z     vdW  Elec       q    Type
REMARK                         _______ _______ _______ _____ _____    ______ ____
ROOT
ATOM      1  O   HOH     1       1.813  -6.197  22.541  0.00  0.00    +0.000 OA
ENDROOT
TORSDOF 0
