REMARK  Name = ../refined-set-2016/2f7o/2f7o_pocket.pdb
REMARK  137 active torsions:
REMARK  status: ('A' for Active; 'I' for Inactive)
REMARK    1  A    between atoms: _1  and  _3
REMARK    2  A    between atoms: _14  and  _17
REMARK    3  A    between atoms: _17  and  _18
REMARK    4  A    between atoms: _25  and  _26
REMARK    5  A    between atoms: _33  and  _34
REMARK    6  A    between atoms: _39  and  _41
REMARK    7  A    between atoms: _41  and  _42
REMARK    8  A    between atoms: _44  and  _46
REMARK    9  A    between atoms: _46  and  _47
REMARK   10  A    between atoms: _46  and  _49
REMARK   11  A    between atoms: _49  and  _50
REMARK   12  A    between atoms: _60  and  _62
REMARK   13  A    between atoms: _62  and  _63
REMARK   14  A    between atoms: _62  and  _65
REMARK   15  A    between atoms: _65  and  _66
REMARK   16  A    between atoms: _69  and  _71
REMARK   17  A    between atoms: _71  and  _72
REMARK   18  A    between atoms: _71  and  _74
REMARK   19  A    between atoms: _74  and  _75
REMARK   20  A    between atoms: _80  and  _81
REMARK   21  A    between atoms: _83  and  _85
REMARK   22  A    between atoms: _85  and  _86
REMARK   23  A    between atoms: _85  and  _88
REMARK   24  A    between atoms: _88  and  _89
REMARK   25  A    between atoms: _89  and  _90
REMARK   26  A    between atoms: _93  and  _95
REMARK   27  A    between atoms: _95  and  _96
REMARK   28  A    between atoms: _95  and  _98
REMARK   29  A    between atoms: _98  and  _99
REMARK   30  A    between atoms: _99  and  _100
REMARK   31  A    between atoms: _102  and  _104
REMARK   32  A    between atoms: _104  and  _105
REMARK   33  A    between atoms: _104  and  _107
REMARK   34  A    between atoms: _107  and  _108
REMARK   35  A    between atoms: _111  and  _113
REMARK   36  A    between atoms: _113  and  _114
REMARK   37  A    between atoms: _113  and  _116
REMARK   38  A    between atoms: _116  and  _117
REMARK   39  A    between atoms: _117  and  _119
REMARK   40  A    between atoms: _119  and  ZN_376
REMARK   41  A    between atoms: _121  and  _122
REMARK   42  A    between atoms: _127  and  _129
REMARK   43  A    between atoms: _129  and  _130
REMARK   44  A    between atoms: _129  and  _132
REMARK   45  A    between atoms: _132  and  _133
REMARK   46  A    between atoms: _139  and  _141
REMARK   47  A    between atoms: _141  and  _142
REMARK   48  A    between atoms: _141  and  _144
REMARK   49  A    between atoms: _144  and  _145
REMARK   50  A    between atoms: _145  and  _146
REMARK   51  A    between atoms: _146  and  _147
REMARK   52  A    between atoms: _156  and  _158
REMARK   53  A    between atoms: _158  and  _159
REMARK   54  A    between atoms: _158  and  _161
REMARK   55  A    between atoms: _161  and  _162
REMARK   56  A    between atoms: _167  and  _168
REMARK   57  A    between atoms: _170  and  _172
REMARK   58  A    between atoms: _172  and  _173
REMARK   59  A    between atoms: _172  and  _175
REMARK   60  A    between atoms: _175  and  _176
REMARK   61  A    between atoms: _178  and  _180
REMARK   62  A    between atoms: _180  and  _181
REMARK   63  A    between atoms: _180  and  _183
REMARK   64  A    between atoms: _183  and  _184
REMARK   65  A    between atoms: _189  and  _190
REMARK   66  A    between atoms: _192  and  _194
REMARK   67  A    between atoms: _194  and  _195
REMARK   68  A    between atoms: _194  and  _197
REMARK   69  A    between atoms: _197  and  _198
REMARK   70  A    between atoms: _201  and  _203
REMARK   71  A    between atoms: _203  and  _204
REMARK   72  A    between atoms: _203  and  _206
REMARK   73  A    between atoms: _206  and  _207
REMARK   74  A    between atoms: _210  and  _212
REMARK   75  A    between atoms: _212  and  _213
REMARK   76  A    between atoms: _212  and  _215
REMARK   77  A    between atoms: _215  and  _216
REMARK   78  A    between atoms: _222  and  _224
REMARK   79  A    between atoms: _224  and  _225
REMARK   80  A    between atoms: _224  and  _227
REMARK   81  A    between atoms: _227  and  _228
REMARK   82  A    between atoms: _233  and  _234
REMARK   83  A    between atoms: _236  and  _238
REMARK   84  A    between atoms: _238  and  _239
REMARK   85  A    between atoms: _238  and  _241
REMARK   86  A    between atoms: _241  and  _242
REMARK   87  A    between atoms: _245  and  _247
REMARK   88  A    between atoms: _247  and  _248
REMARK   89  A    between atoms: _247  and  _250
REMARK   90  A    between atoms: _250  and  _251
REMARK   91  A    between atoms: _261  and  _263
REMARK   92  A    between atoms: _263  and  _264
REMARK   93  A    between atoms: _263  and  _266
REMARK   94  A    between atoms: _266  and  _267
REMARK   95  A    between atoms: _272  and  _274
REMARK   96  A    between atoms: _274  and  _275
REMARK   97  A    between atoms: _274  and  _277
REMARK   98  A    between atoms: _277  and  _278
REMARK   99  A    between atoms: _282  and  ZN_376
REMARK  100  A    between atoms: _283  and  _285
REMARK  101  A    between atoms: _285  and  _286
REMARK  102  A    between atoms: _285  and  _288
REMARK  103  A    between atoms: _288  and  _289
REMARK  104  A    between atoms: _292  and  _294
REMARK  105  A    between atoms: _294  and  _295
REMARK  106  A    between atoms: _297  and  _299
REMARK  107  A    between atoms: _299  and  _300
REMARK  108  A    between atoms: _299  and  _302
REMARK  109  A    between atoms: _302  and  _303
REMARK  110  A    between atoms: _306  and  _308
REMARK  111  A    between atoms: _308  and  _309
REMARK  112  A    between atoms: _308  and  _311
REMARK  113  A    between atoms: _311  and  _312
REMARK  114  A    between atoms: _315  and  _317
REMARK  115  A    between atoms: _317  and  _318
REMARK  116  A    between atoms: _321  and  _323
REMARK  117  A    between atoms: _323  and  _324
REMARK  118  A    between atoms: _323  and  _326
REMARK  119  A    between atoms: _326  and  _327
REMARK  120  A    between atoms: _332  and  _333
REMARK  121  A    between atoms: _335  and  _337
REMARK  122  A    between atoms: _337  and  _338
REMARK  123  A    between atoms: _337  and  _340
REMARK  124  A    between atoms: _340  and  _341
REMARK  125  A    between atoms: _341  and  _342
REMARK  126  A    between atoms: _345  and  _347
REMARK  127  A    between atoms: _347  and  _348
REMARK  128  A    between atoms: _347  and  _350
REMARK  129  A    between atoms: _350  and  _351
REMARK  130  A    between atoms: _351  and  _352
REMARK  131  A    between atoms: _352  and  _353
REMARK  132  A    between atoms: _362  and  _364
REMARK  133  A    between atoms: _364  and  _365
REMARK  134  A    between atoms: _367  and  _369
REMARK  135  A    between atoms: _369  and  _370
REMARK  136  A    between atoms: _369  and  _372
REMARK  137  A    between atoms: _372  and  _373
REMARK                            x       y       z     vdW  Elec       q    Type
REMARK                         _______ _______ _______ _____ _____    ______ ____
ROOT
ATOM      1  C   UNK A   1      36.913  61.170  13.634  0.00  0.00    +0.000 C 
ATOM      2  C   UNK A   1      37.574  62.559  13.573  0.00  0.00    +0.000 C 
ATOM      3  O   UNK A   1      37.009  63.551  14.036  0.00  0.00    +0.000 OA
ATOM      4  N   UNK A   2      38.746  62.623  12.956  0.00  0.00    +0.000 N 
ATOM      5  C   UNK A   2      39.514  63.879  12.884  0.00  0.00    +0.000 C 
ATOM      6  C   UNK A   2      39.680  64.351  11.452  0.00  0.00    +0.000 C 
ATOM      7  N   UNK A   3      38.939  65.382  11.103  0.00  0.00    +0.000 N 
ATOM      8  H   UNK A   3      38.280  65.811  11.784  0.00  0.00    +0.000 HD
ATOM      9  C   UNK A   3      39.055  65.920   9.736  0.00  0.00    +0.000 C 
ATOM     10  C   UNK A   3      37.836  66.805   9.471  0.00  0.00    +0.000 C 
ATOM     11  C   UNK A   3      36.548  65.995   9.532  0.00  0.00    +0.000 C 
ATOM     12  O   UNK A   3      35.808  66.247  10.519  0.00  0.00    +0.000 OA
ATOM     13  O   UNK A   3      36.334  65.156   8.645  0.00  0.00    +0.000 OA
ATOM     14 ZN   UNK A   1      34.587  63.998   8.223  0.00  0.00    +0.000 Zn
ATOM     15  N   UNK A   1      35.181  62.461   9.575  0.00  0.00    +0.000 N 
ATOM     16  C   UNK A   1      34.980  62.639  10.921  0.00  0.00    +0.000 A 
ATOM     17  C   UNK A   1      35.494  61.558  11.557  0.00  0.00    +0.000 A 
ATOM     18  N   UNK A   1      36.014  60.746  10.571  0.00  0.00    +0.000 NA
ATOM     19  C   UNK A   1      35.799  61.307   9.389  0.00  0.00    +0.000 A 
ATOM     20  O   UNK A   2      40.520  63.807  10.708  0.00  0.00    +0.000 OA
ATOM     21  H   UNK A   2      39.133  61.766  12.512  0.00  0.00    +0.000 HD
ATOM     22  C   UNK A   1      35.517  61.181  13.013  0.00  0.00    +0.000 C 
ENDROOT
BRANCH   9  23
ATOM     23  C   UNK A   3      40.275  66.774   9.603  0.00  0.00    +0.000 C 
ATOM     24  O   UNK A   3      40.485  67.705  10.400  0.00  0.00    +0.000 OA
ATOM     25  N   GLY A   4      41.090  66.491   8.545  0.00  0.00    +0.000 N 
ATOM     26  CA  GLY A   4      42.322  67.294   8.264  0.00  0.00    +0.000 C 
ATOM     27  CB  GLY A   4      43.176  66.345   7.415  0.00  0.00    +0.000 C 
ATOM     28  CG  GLY A   4      42.644  64.953   7.751  0.00  0.00    +0.000 C 
ATOM     29  CD  GLY A   4      41.113  65.215   7.791  0.00  0.00    +0.000 C 
BRANCH  26  30
ATOM     30  C   GLY A   4      41.883  68.571   7.462  0.00  0.00    +0.000 C 
ATOM     31  N   GLY A   5      41.062  69.357   8.133  0.00  0.00    +0.000 N 
ATOM     32  H   GLY A   5      40.813  69.086   9.106  0.00  0.00    +0.000 HD
ATOM     33  O   GLY A   4      42.191  68.765   6.266  0.00  0.00    +0.000 OA
BRANCH  31  34
ATOM     34  CA  GLY A   5      40.487  70.571   7.599  0.00  0.00    +0.000 C 
BRANCH  34  35
ATOM     35  C   GLY A   5      38.988  70.389   7.404  0.00  0.00    +0.000 C 
ATOM     36  N   TRP A   6      38.193  71.369   7.888  0.00  0.00    +0.000 N 
ATOM     37  H   TRP A   6      38.631  72.120   8.460  0.00  0.00    +0.000 HD
ATOM     38  O   GLY A   5      38.562  69.333   6.789  0.00  0.00    +0.000 OA
BRANCH  36  39
ATOM     39  CA  TRP A   6      36.770  71.431   7.655  0.00  0.00    +0.000 C 
BRANCH  39  40
ATOM     40  C   TRP A   6      36.285  72.836   8.109  0.00  0.00    +0.000 C 
ATOM     41  N   ILE A   7      35.898  72.965   9.374  0.00  0.00    +0.000 N 
ATOM     42  H   ILE A   7      35.905  72.123   9.985  0.00  0.00    +0.000 HD
ATOM     43  O   TRP A   6      36.221  73.712   7.275  0.00  0.00    +0.000 OA
BRANCH  41  44
ATOM     44  CA  ILE A   7      35.458  74.252   9.950  0.00  0.00    +0.000 C 
BRANCH  44  45
ATOM     45  C   ILE A   7      36.713  75.020  10.340  0.00  0.00    +0.000 C 
ATOM     46  O   ILE A   7      36.612  76.213  10.620  0.00  0.00    +0.000 OA
ENDBRANCH  44  45
BRANCH  44  47
ATOM     47  CB  ILE A   7      34.619  74.074  11.261  0.00  0.00    +0.000 C 
ATOM     48  CG2 ILE A   7      34.335  75.430  11.908  0.00  0.00    +0.000 C 
BRANCH  47  49
ATOM     49  CG1 ILE A   7      33.335  73.315  10.976  0.00  0.00    +0.000 C 
ATOM     50  CD1 ILE A   7      32.693  73.754   9.755  0.00  0.00    +0.000 C 
ENDBRANCH  47  49
ENDBRANCH  44  47
ENDBRANCH  41  44
ENDBRANCH  39  40
BRANCH  39  51
ATOM     51  CB  TRP A   6      35.971  70.259   8.306  0.00  0.00    +0.000 C 
BRANCH  51  52
ATOM     52  CG  TRP A   6      34.474  70.408   7.931  0.00  0.00    +0.000 A 
ATOM     53  CD2 TRP A   6      33.387  70.231   8.812  0.00  0.00    +0.000 A 
ATOM     54  CE3 TRP A   6      33.288  69.883  10.168  0.00  0.00    +0.000 A 
ATOM     55  CZ3 TRP A   6      32.008  69.764  10.755  0.00  0.00    +0.000 A 
ATOM     56  CH2 TRP A   6      30.856  69.996   9.987  0.00  0.00    +0.000 A 
ATOM     57  CZ2 TRP A   6      30.920  70.341   8.678  0.00  0.00    +0.000 A 
ATOM     58  CE2 TRP A   6      32.207  70.460   8.076  0.00  0.00    +0.000 A 
ATOM     59  NE1 TRP A   6      32.561  70.779   6.785  0.00  0.00    +0.000 N 
ATOM     60  HE1 TRP A   6      31.904  71.010   6.012  0.00  0.00    +0.000 HD
ATOM     61  CD1 TRP A   6      33.936  70.739   6.692  0.00  0.00    +0.000 A 
ENDBRANCH  51  52
ENDBRANCH  39  51
ENDBRANCH  36  39
ENDBRANCH  34  35
ENDBRANCH  31  34
ENDBRANCH  26  30
ENDBRANCH   9  23
BRANCH  14  62
ATOM     62  N   UNK A   1      35.421  63.301   6.434  0.00  0.00    +0.000 N 
ATOM     63  C   UNK A   1      36.498  62.554   6.221  0.00  0.00    +0.000 A 
ATOM     64  N   UNK A   1      36.656  62.429   4.921  0.00  0.00    +0.000 NA
ATOM     65  C   UNK A   1      35.659  63.146   4.270  0.00  0.00    +0.000 A 
ATOM     66  C   UNK A   1      34.879  63.682   5.242  0.00  0.00    +0.000 A 
BRANCH  65  67
ATOM     67  C   UNK A   1      35.580  63.245   2.783  0.00  0.00    +0.000 C 
BRANCH  67  68
ATOM     68  C   UNK A   1      36.464  64.369   2.168  0.00  0.00    +0.000 C 
BRANCH  68  69
ATOM     69  N   UNK A   1      37.880  64.222   2.499  0.00  0.00    +0.000 N 
ATOM     70  H   UNK A   1      38.142  63.583   3.277  0.00  0.00    +0.000 HD
ATOM     71  C   UNK A   1      38.859  64.871   1.848  0.00  0.00    +0.000 C 
ATOM     72  O   UNK A   1      38.659  65.627   0.903  0.00  0.00    +0.000 OA
BRANCH  71  73
ATOM     73  C   UNK A   1      40.284  64.595   2.362  0.00  0.00    +0.000 C 
BRANCH  73  74
ATOM     74  N   UNK A   1      41.206  64.666   1.212  0.00  0.00    +0.000 NA
ATOM     75  H   UNK A   1      42.061  65.250   1.312  0.00  0.00    +0.000 HD
ENDBRANCH  73  74
BRANCH  73  76
ATOM     76  C   UNK A   1      40.707  65.655   3.400  0.00  0.00    +0.000 C 
BRANCH  76  77
ATOM     77  C   UNK A   1      39.739  65.824   4.507  0.00  0.00    +0.000 A 
ATOM     78  N   UNK A   1      39.140  64.755   5.153  0.00  0.00    +0.000 NA
ATOM     79  C   UNK A   1      38.291  65.231   6.047  0.00  0.00    +0.000 A 
ATOM     80  N   UNK A   1      38.312  66.554   5.993  0.00  0.00    +0.000 NA
ATOM     81  C   UNK A   1      39.228  66.946   5.063  0.00  0.00    +0.000 A 
ENDBRANCH  76  77
ENDBRANCH  73  76
ENDBRANCH  71  73
ENDBRANCH  68  69
BRANCH  68  82
ATOM     82  C   UNK A   1      35.874  65.763   2.412  0.00  0.00    +0.000 C 
ATOM     83  N   UNK A   3      36.712  66.760   2.818  0.00  0.00    +0.000 N 
ATOM     84  H   UNK A   3      37.688  66.529   3.095  0.00  0.00    +0.000 HD
ATOM     85  O   UNK A   1      34.659  65.918   2.273  0.00  0.00    +0.000 OA
BRANCH  83  86
ATOM     86  C   UNK A   3      36.255  68.158   2.870  0.00  0.00    +0.000 C 
BRANCH  86  87
ATOM     87  C   UNK A   3      37.209  69.011   2.054  0.00  0.00    +0.000 C 
ATOM     88  O   UNK A   3      37.056  70.220   2.054  0.00  0.00    +0.000 OA
ATOM     89  N   GLY A   4      38.166  68.381   1.354  0.00  0.00    +0.000 N 
ATOM     90  H   GLY A   4      38.247  67.346   1.414  0.00  0.00    +0.000 HD
BRANCH  89  91
ATOM     91  CA  GLY A   4      39.084  69.117   0.520  0.00  0.00    +0.000 C 
BRANCH  91  92
ATOM     92  C   GLY A   4      38.581  69.199  -0.883  0.00  0.00    +0.000 C 
ATOM     93  O   GLY A   4      37.836  70.141  -1.250  0.00  0.00    +0.000 OA
ENDBRANCH  91  92
ENDBRANCH  89  91
ENDBRANCH  86  87
BRANCH  86  94
ATOM     94  C   UNK A   3      36.160  68.725   4.305  0.00  0.00    +0.000 C 
BRANCH  94  95
ATOM     95  C   UNK A   3      35.125  67.970   5.154  0.00  0.00    +0.000 C 
ATOM     96  O   UNK A   3      35.500  67.344   6.134  0.00  0.00    +0.000 OA
ATOM     97  O   UNK A   3      33.929  68.027   4.713  0.00  0.00    +0.000 OA
ENDBRANCH  94  95
ENDBRANCH  86  94
ENDBRANCH  83  86
ENDBRANCH  68  82
ENDBRANCH  67  68
ENDBRANCH  65  67
ENDBRANCH  14  62
BRANCH   1  98
ATOM     98  N   UNK A   1      36.785  60.724  15.015  0.00  0.00    +0.000 NA
ATOM     99  H   UNK A   1      35.878  60.832  15.512  0.00  0.00    +0.000 HD
ENDBRANCH   1  98
BRANCH   5 100
ATOM    100  C   UNK A   2      40.895  63.643  13.532  0.00  0.00    +0.000 C 
BRANCH 100 101
ATOM    101  C   UNK A   2      40.823  63.575  15.045  0.00  0.00    +0.000 C 
ATOM    102  O   UNK A   2      41.379  64.415  15.747  0.00  0.00    +0.000 OA
ATOM    103  N   UNK A   2      40.165  62.546  15.568  0.00  0.00    +0.000 N 
ATOM    104  H   UNK A   2      40.110  62.435  16.601  0.00  0.00    +0.000 HD
ATOM    105  H   UNK A   2      39.705  61.852  14.945  0.00  0.00    +0.000 HD
ENDBRANCH 100 101
ENDBRANCH   5 100
BRANCH  14 106
ATOM    106  O   UNK A   1      32.680  63.244   8.006  0.00  0.00    +0.000 OA
BRANCH 106 107
ATOM    107  C   UNK A   1      32.126  62.130   7.657  0.00  0.00    +0.000 C 
ATOM    108  O   UNK A   1      30.870  61.941   7.660  0.00  0.00    +0.000 OA
BRANCH 107 109
ATOM    109  C   UNK A   1      33.060  60.954   7.325  0.00  0.00    +0.000 C 
BRANCH 109 110
ATOM    110  C   UNK A   1      32.384  59.829   6.483  0.00  0.00    +0.000 C 
BRANCH 110 111
ATOM    111  C   UNK A   1      32.327  60.245   4.993  0.00  0.00    +0.000 C 
ATOM    112  O   UNK A   1      31.575  61.188   4.679  0.00  0.00    +0.000 OA
ATOM    113  N   UNK A   3      33.087  59.619   4.049  0.00  0.00    +0.000 N 
ATOM    114  C   UNK A   3      34.091  58.550   4.160  0.00  0.00    +0.000 C 
ATOM    115  C   UNK A   3      34.882  58.691   2.930  0.00  0.00    +0.000 C 
ATOM    116  C   UNK A   3      33.808  59.095   1.910  0.00  0.00    +0.000 C 
ATOM    117  C   UNK A   3      32.941  60.065   2.666  0.00  0.00    +0.000 C 
BRANCH 117 118
ATOM    118  C   UNK A   3      31.445  60.001   2.270  0.00  0.00    +0.000 C 
ATOM    119  O   UNK A   3      30.694  59.092   2.698  0.00  0.00    +0.000 OA
ATOM    120  N   GLY A   4      31.018  60.896   1.395  0.00  0.00    +0.000 N 
ATOM    121  H   GLY A   4      31.705  61.515   0.920  0.00  0.00    +0.000 HD
BRANCH 120 122
ATOM    122  CA  GLY A   4      29.556  61.033   1.075  0.00  0.00    +0.000 C 
BRANCH 122 123
ATOM    123  C   GLY A   4      29.131  60.175  -0.090  0.00  0.00    +0.000 C 
ATOM    124  O   GLY A   4      28.916  60.645  -1.196  0.00  0.00    +0.000 OA
ENDBRANCH 122 123
BRANCH 122 125
ATOM    125  CB  GLY A   4      29.238  62.541   0.793  0.00  0.00    +0.000 C 
BRANCH 125 126
ATOM    126  CG  GLY A   4      30.070  63.528   1.635  0.00  0.00    +0.000 A 
ATOM    127  CD2 GLY A   4      30.255  63.321   2.994  0.00  0.00    +0.000 A 
ATOM    128  CE2 GLY A   4      31.027  64.164   3.786  0.00  0.00    +0.000 A 
ATOM    129  CZ  GLY A   4      31.646  65.271   3.199  0.00  0.00    +0.000 A 
ATOM    130  CE1 GLY A   4      31.455  65.523   1.830  0.00  0.00    +0.000 A 
ATOM    131  CD1 GLY A   4      30.664  64.652   1.028  0.00  0.00    +0.000 A 
ENDBRANCH 125 126
ENDBRANCH 122 125
ENDBRANCH 120 122
ENDBRANCH 117 118
ENDBRANCH 110 111
BRANCH 110 132
ATOM    132  N   UNK A   1      32.933  58.534   6.861  0.00  0.00    +0.000 N 
ATOM    133  C   UNK A   1      32.163  57.637   7.496  0.00  0.00    +0.000 C 
ATOM    134  O   UNK A   1      30.969  57.813   7.720  0.00  0.00    +0.000 OA
ATOM    135  H   UNK A   1      33.923  58.304   6.639  0.00  0.00    +0.000 HD
BRANCH 133 136
ATOM    136  C   UNK A   1      32.800  56.297   7.950  0.00  0.00    +0.000 C 
BRANCH 136 137
ATOM    137  N   UNK A   1      34.113  55.989   7.370  0.00  0.00    +0.000 NA
ATOM    138  H   UNK A   1      34.968  56.365   7.827  0.00  0.00    +0.000 HD
ENDBRANCH 136 137
BRANCH 136 139
ATOM    139  C   UNK A   1      32.874  56.392   9.480  0.00  0.00    +0.000 C 
ATOM    140  C   UNK A   1      33.139  54.997  10.079  0.00  0.00    +0.000 C 
BRANCH 139 141
ATOM    141  C   UNK A   1      34.032  57.296   9.957  0.00  0.00    +0.000 C 
ATOM    142  C   UNK A   1      33.949  57.516  11.523  0.00  0.00    +0.000 C 
ENDBRANCH 139 141
ENDBRANCH 136 139
ENDBRANCH 133 136
ENDBRANCH 110 132
ENDBRANCH 109 110
ENDBRANCH 107 109
ENDBRANCH 106 107
ENDBRANCH  14 106
TORSDOF 45
REMARK  Name = ../refined-set-2016/2f7o/2f7o_pocket.pdb
REMARK  137 active torsions:
REMARK  status: ('A' for Active; 'I' for Inactive)
REMARK    1  A    between atoms: _1  and  _3
REMARK    2  A    between atoms: _14  and  _17
REMARK    3  A    between atoms: _17  and  _18
REMARK    4  A    between atoms: _25  and  _26
REMARK    5  A    between atoms: _33  and  _34
REMARK    6  A    between atoms: _39  and  _41
REMARK    7  A    between atoms: _41  and  _42
REMARK    8  A    between atoms: _44  and  _46
REMARK    9  A    between atoms: _46  and  _47
REMARK   10  A    between atoms: _46  and  _49
REMARK   11  A    between atoms: _49  and  _50
REMARK   12  A    between atoms: _60  and  _62
REMARK   13  A    between atoms: _62  and  _63
REMARK   14  A    between atoms: _62  and  _65
REMARK   15  A    between atoms: _65  and  _66
REMARK   16  A    between atoms: _69  and  _71
REMARK   17  A    between atoms: _71  and  _72
REMARK   18  A    between atoms: _71  and  _74
REMARK   19  A    between atoms: _74  and  _75
REMARK   20  A    between atoms: _80  and  _81
REMARK   21  A    between atoms: _83  and  _85
REMARK   22  A    between atoms: _85  and  _86
REMARK   23  A    between atoms: _85  and  _88
REMARK   24  A    between atoms: _88  and  _89
REMARK   25  A    between atoms: _89  and  _90
REMARK   26  A    between atoms: _93  and  _95
REMARK   27  A    between atoms: _95  and  _96
REMARK   28  A    between atoms: _95  and  _98
REMARK   29  A    between atoms: _98  and  _99
REMARK   30  A    between atoms: _99  and  _100
REMARK   31  A    between atoms: _102  and  _104
REMARK   32  A    between atoms: _104  and  _105
REMARK   33  A    between atoms: _104  and  _107
REMARK   34  A    between atoms: _107  and  _108
REMARK   35  A    between atoms: _111  and  _113
REMARK   36  A    between atoms: _113  and  _114
REMARK   37  A    between atoms: _113  and  _116
REMARK   38  A    between atoms: _116  and  _117
REMARK   39  A    between atoms: _117  and  _119
REMARK   40  A    between atoms: _119  and  ZN_376
REMARK   41  A    between atoms: _121  and  _122
REMARK   42  A    between atoms: _127  and  _129
REMARK   43  A    between atoms: _129  and  _130
REMARK   44  A    between atoms: _129  and  _132
REMARK   45  A    between atoms: _132  and  _133
REMARK   46  A    between atoms: _139  and  _141
REMARK   47  A    between atoms: _141  and  _142
REMARK   48  A    between atoms: _141  and  _144
REMARK   49  A    between atoms: _144  and  _145
REMARK   50  A    between atoms: _145  and  _146
REMARK   51  A    between atoms: _146  and  _147
REMARK   52  A    between atoms: _156  and  _158
REMARK   53  A    between atoms: _158  and  _159
REMARK   54  A    between atoms: _158  and  _161
REMARK   55  A    between atoms: _161  and  _162
REMARK   56  A    between atoms: _167  and  _168
REMARK   57  A    between atoms: _170  and  _172
REMARK   58  A    between atoms: _172  and  _173
REMARK   59  A    between atoms: _172  and  _175
REMARK   60  A    between atoms: _175  and  _176
REMARK   61  A    between atoms: _178  and  _180
REMARK   62  A    between atoms: _180  and  _181
REMARK   63  A    between atoms: _180  and  _183
REMARK   64  A    between atoms: _183  and  _184
REMARK   65  A    between atoms: _189  and  _190
REMARK   66  A    between atoms: _192  and  _194
REMARK   67  A    between atoms: _194  and  _195
REMARK   68  A    between atoms: _194  and  _197
REMARK   69  A    between atoms: _197  and  _198
REMARK   70  A    between atoms: _201  and  _203
REMARK   71  A    between atoms: _203  and  _204
REMARK   72  A    between atoms: _203  and  _206
REMARK   73  A    between atoms: _206  and  _207
REMARK   74  A    between atoms: _210  and  _212
REMARK   75  A    between atoms: _212  and  _213
REMARK   76  A    between atoms: _212  and  _215
REMARK   77  A    between atoms: _215  and  _216
REMARK   78  A    between atoms: _222  and  _224
REMARK   79  A    between atoms: _224  and  _225
REMARK   80  A    between atoms: _224  and  _227
REMARK   81  A    between atoms: _227  and  _228
REMARK   82  A    between atoms: _233  and  _234
REMARK   83  A    between atoms: _236  and  _238
REMARK   84  A    between atoms: _238  and  _239
REMARK   85  A    between atoms: _238  and  _241
REMARK   86  A    between atoms: _241  and  _242
REMARK   87  A    between atoms: _245  and  _247
REMARK   88  A    between atoms: _247  and  _248
REMARK   89  A    between atoms: _247  and  _250
REMARK   90  A    between atoms: _250  and  _251
REMARK   91  A    between atoms: _261  and  _263
REMARK   92  A    between atoms: _263  and  _264
REMARK   93  A    between atoms: _263  and  _266
REMARK   94  A    between atoms: _266  and  _267
REMARK   95  A    between atoms: _272  and  _274
REMARK   96  A    between atoms: _274  and  _275
REMARK   97  A    between atoms: _274  and  _277
REMARK   98  A    between atoms: _277  and  _278
REMARK   99  A    between atoms: _282  and  ZN_376
REMARK  100  A    between atoms: _283  and  _285
REMARK  101  A    between atoms: _285  and  _286
REMARK  102  A    between atoms: _285  and  _288
REMARK  103  A    between atoms: _288  and  _289
REMARK  104  A    between atoms: _292  and  _294
REMARK  105  A    between atoms: _294  and  _295
REMARK  106  A    between atoms: _297  and  _299
REMARK  107  A    between atoms: _299  and  _300
REMARK  108  A    between atoms: _299  and  _302
REMARK  109  A    between atoms: _302  and  _303
REMARK  110  A    between atoms: _306  and  _308
REMARK  111  A    between atoms: _308  and  _309
REMARK  112  A    between atoms: _308  and  _311
REMARK  113  A    between atoms: _311  and  _312
REMARK  114  A    between atoms: _315  and  _317
REMARK  115  A    between atoms: _317  and  _318
REMARK  116  A    between atoms: _321  and  _323
REMARK  117  A    between atoms: _323  and  _324
REMARK  118  A    between atoms: _323  and  _326
REMARK  119  A    between atoms: _326  and  _327
REMARK  120  A    between atoms: _332  and  _333
REMARK  121  A    between atoms: _335  and  _337
REMARK  122  A    between atoms: _337  and  _338
REMARK  123  A    between atoms: _337  and  _340
REMARK  124  A    between atoms: _340  and  _341
REMARK  125  A    between atoms: _341  and  _342
REMARK  126  A    between atoms: _345  and  _347
REMARK  127  A    between atoms: _347  and  _348
REMARK  128  A    between atoms: _347  and  _350
REMARK  129  A    between atoms: _350  and  _351
REMARK  130  A    between atoms: _351  and  _352
REMARK  131  A    between atoms: _352  and  _353
REMARK  132  A    between atoms: _362  and  _364
REMARK  133  A    between atoms: _364  and  _365
REMARK  134  A    between atoms: _367  and  _369
REMARK  135  A    between atoms: _369  and  _370
REMARK  136  A    between atoms: _369  and  _372
REMARK  137  A    between atoms: _372  and  _373
REMARK                            x       y       z     vdW  Elec       q    Type
REMARK                         _______ _______ _______ _____ _____    ______ ____
ROOT
ATOM      1  CG  TYR A   1      40.368  70.850  13.143  0.00  0.00    -0.020 A 
ATOM      2  CD2 TYR A   1      39.339  71.071  14.008  0.00  0.00    -0.001 A 
ATOM      3  CE2 TYR A   1      38.006  71.177  13.546  0.00  0.00    +0.036 A 
ATOM      4  CZ  TYR A   1      37.715  71.036  12.204  0.00  0.00    +0.134 A 
ATOM      5  CE1 TYR A   1      38.737  70.823  11.285  0.00  0.00    +0.036 A 
ATOM      6  CD1 TYR A   1      40.048  70.754  11.763  0.00  0.00    -0.001 A 
ENDROOT
BRANCH   4   7
ATOM      7  OH  TYR A   1      36.406  71.077  11.793  0.00  0.00    -0.506 OA
ATOM      8  HH  TYR A   1      35.821  71.236  12.575  0.00  0.00    +0.292 HD
ENDBRANCH   4   7
BRANCH   1   9
ATOM      9  CB  TYR A   1      41.776  70.535  13.607  0.00  0.00    +0.051 C 
BRANCH   9  10
ATOM     10  CA  TYR A   1      42.418  71.549  14.566  0.00  0.00    +0.137 C 
BRANCH  10  11
ATOM     11  N   TYR A   1      42.989  72.715  13.842  0.00  0.00    -0.239 NA
ATOM     12  H   TYR A   1      42.974  72.745  12.803  0.00  0.00    +0.142 HD
ENDBRANCH  10  11
BRANCH  10  13
ATOM     13  C   TYR A   1      43.511  70.779  15.324  0.00  0.00    +0.224 C 
ATOM     14  O   TYR A   1      43.274  70.256  16.368  0.00  0.00    -0.287 OA
ENDBRANCH  10  13
ENDBRANCH   9  10
ENDBRANCH   1   9
TORSDOF 5
REMARK  Name = ../refined-set-2016/2f7o/2f7o_pocket.pdb
REMARK  137 active torsions:
REMARK  status: ('A' for Active; 'I' for Inactive)
REMARK    1  A    between atoms: _1  and  _3
REMARK    2  A    between atoms: _14  and  _17
REMARK    3  A    between atoms: _17  and  _18
REMARK    4  A    between atoms: _25  and  _26
REMARK    5  A    between atoms: _33  and  _34
REMARK    6  A    between atoms: _39  and  _41
REMARK    7  A    between atoms: _41  and  _42
REMARK    8  A    between atoms: _44  and  _46
REMARK    9  A    between atoms: _46  and  _47
REMARK   10  A    between atoms: _46  and  _49
REMARK   11  A    between atoms: _49  and  _50
REMARK   12  A    between atoms: _60  and  _62
REMARK   13  A    between atoms: _62  and  _63
REMARK   14  A    between atoms: _62  and  _65
REMARK   15  A    between atoms: _65  and  _66
REMARK   16  A    between atoms: _69  and  _71
REMARK   17  A    between atoms: _71  and  _72
REMARK   18  A    between atoms: _71  and  _74
REMARK   19  A    between atoms: _74  and  _75
REMARK   20  A    between atoms: _80  and  _81
REMARK   21  A    between atoms: _83  and  _85
REMARK   22  A    between atoms: _85  and  _86
REMARK   23  A    between atoms: _85  and  _88
REMARK   24  A    between atoms: _88  and  _89
REMARK   25  A    between atoms: _89  and  _90
REMARK   26  A    between atoms: _93  and  _95
REMARK   27  A    between atoms: _95  and  _96
REMARK   28  A    between atoms: _95  and  _98
REMARK   29  A    between atoms: _98  and  _99
REMARK   30  A    between atoms: _99  and  _100
REMARK   31  A    between atoms: _102  and  _104
REMARK   32  A    between atoms: _104  and  _105
REMARK   33  A    between atoms: _104  and  _107
REMARK   34  A    between atoms: _107  and  _108
REMARK   35  A    between atoms: _111  and  _113
REMARK   36  A    between atoms: _113  and  _114
REMARK   37  A    between atoms: _113  and  _116
REMARK   38  A    between atoms: _116  and  _117
REMARK   39  A    between atoms: _117  and  _119
REMARK   40  A    between atoms: _119  and  ZN_376
REMARK   41  A    between atoms: _121  and  _122
REMARK   42  A    between atoms: _127  and  _129
REMARK   43  A    between atoms: _129  and  _130
REMARK   44  A    between atoms: _129  and  _132
REMARK   45  A    between atoms: _132  and  _133
REMARK   46  A    between atoms: _139  and  _141
REMARK   47  A    between atoms: _141  and  _142
REMARK   48  A    between atoms: _141  and  _144
REMARK   49  A    between atoms: _144  and  _145
REMARK   50  A    between atoms: _145  and  _146
REMARK   51  A    between atoms: _146  and  _147
REMARK   52  A    between atoms: _156  and  _158
REMARK   53  A    between atoms: _158  and  _159
REMARK   54  A    between atoms: _158  and  _161
REMARK   55  A    between atoms: _161  and  _162
REMARK   56  A    between atoms: _167  and  _168
REMARK   57  A    between atoms: _170  and  _172
REMARK   58  A    between atoms: _172  and  _173
REMARK   59  A    between atoms: _172  and  _175
REMARK   60  A    between atoms: _175  and  _176
REMARK   61  A    between atoms: _178  and  _180
REMARK   62  A    between atoms: _180  and  _181
REMARK   63  A    between atoms: _180  and  _183
REMARK   64  A    between atoms: _183  and  _184
REMARK   65  A    between atoms: _189  and  _190
REMARK   66  A    between atoms: _192  and  _194
REMARK   67  A    between atoms: _194  and  _195
REMARK   68  A    between atoms: _194  and  _197
REMARK   69  A    between atoms: _197  and  _198
REMARK   70  A    between atoms: _201  and  _203
REMARK   71  A    between atoms: _203  and  _204
REMARK   72  A    between atoms: _203  and  _206
REMARK   73  A    between atoms: _206  and  _207
REMARK   74  A    between atoms: _210  and  _212
REMARK   75  A    between atoms: _212  and  _213
REMARK   76  A    between atoms: _212  and  _215
REMARK   77  A    between atoms: _215  and  _216
REMARK   78  A    between atoms: _222  and  _224
REMARK   79  A    between atoms: _224  and  _225
REMARK   80  A    between atoms: _224  and  _227
REMARK   81  A    between atoms: _227  and  _228
REMARK   82  A    between atoms: _233  and  _234
REMARK   83  A    between atoms: _236  and  _238
REMARK   84  A    between atoms: _238  and  _239
REMARK   85  A    between atoms: _238  and  _241
REMARK   86  A    between atoms: _241  and  _242
REMARK   87  A    between atoms: _245  and  _247
REMARK   88  A    between atoms: _247  and  _248
REMARK   89  A    between atoms: _247  and  _250
REMARK   90  A    between atoms: _250  and  _251
REMARK   91  A    between atoms: _261  and  _263
REMARK   92  A    between atoms: _263  and  _264
REMARK   93  A    between atoms: _263  and  _266
REMARK   94  A    between atoms: _266  and  _267
REMARK   95  A    between atoms: _272  and  _274
REMARK   96  A    between atoms: _274  and  _275
REMARK   97  A    between atoms: _274  and  _277
REMARK   98  A    between atoms: _277  and  _278
REMARK   99  A    between atoms: _282  and  ZN_376
REMARK  100  A    between atoms: _283  and  _285
REMARK  101  A    between atoms: _285  and  _286
REMARK  102  A    between atoms: _285  and  _288
REMARK  103  A    between atoms: _288  and  _289
REMARK  104  A    between atoms: _292  and  _294
REMARK  105  A    between atoms: _294  and  _295
REMARK  106  A    between atoms: _297  and  _299
REMARK  107  A    between atoms: _299  and  _300
REMARK  108  A    between atoms: _299  and  _302
REMARK  109  A    between atoms: _302  and  _303
REMARK  110  A    between atoms: _306  and  _308
REMARK  111  A    between atoms: _308  and  _309
REMARK  112  A    between atoms: _308  and  _311
REMARK  113  A    between atoms: _311  and  _312
REMARK  114  A    between atoms: _315  and  _317
REMARK  115  A    between atoms: _317  and  _318
REMARK  116  A    between atoms: _321  and  _323
REMARK  117  A    between atoms: _323  and  _324
REMARK  118  A    between atoms: _323  and  _326
REMARK  119  A    between atoms: _326  and  _327
REMARK  120  A    between atoms: _332  and  _333
REMARK  121  A    between atoms: _335  and  _337
REMARK  122  A    between atoms: _337  and  _338
REMARK  123  A    between atoms: _337  and  _340
REMARK  124  A    between atoms: _340  and  _341
REMARK  125  A    between atoms: _341  and  _342
REMARK  126  A    between atoms: _345  and  _347
REMARK  127  A    between atoms: _347  and  _348
REMARK  128  A    between atoms: _347  and  _350
REMARK  129  A    between atoms: _350  and  _351
REMARK  130  A    between atoms: _351  and  _352
REMARK  131  A    between atoms: _352  and  _353
REMARK  132  A    between atoms: _362  and  _364
REMARK  133  A    between atoms: _364  and  _365
REMARK  134  A    between atoms: _367  and  _369
REMARK  135  A    between atoms: _369  and  _370
REMARK  136  A    between atoms: _369  and  _372
REMARK  137  A    between atoms: _372  and  _373
REMARK                            x       y       z     vdW  Elec       q    Type
REMARK                         _______ _______ _______ _____ _____    ______ ____
ROOT
ATOM      1  CA  GLU A   1      44.269  59.910   9.645  0.00  0.00    +0.134 C 
ENDROOT
BRANCH   1   2
ATOM      2  N   GLU A   1      43.602  58.842  10.437  0.00  0.00    -0.239 NA
ATOM      3  H   GLU A   1      43.179  59.080  11.357  0.00  0.00    +0.142 HD
ENDBRANCH   1   2
BRANCH   1   4
ATOM      4  C   GLU A   1      45.739  60.032  10.004  0.00  0.00    +0.224 C 
ATOM      5  O   GLU A   1      46.116  60.634  11.053  0.00  0.00    -0.287 OA
ENDBRANCH   1   4
BRANCH   1   6
ATOM      6  CB  GLU A   1      43.502  61.234   9.851  0.00  0.00    +0.037 C 
BRANCH   6   7
ATOM      7  CG  GLU A   1      41.950  61.125   9.566  0.00  0.00    +0.116 C 
BRANCH   7   8
ATOM      8  CD  GLU A   1      41.103  60.644  10.769  0.00  0.00    +0.365 C 
ATOM      9  OE2 GLU A   1      41.622  60.440  11.882  0.00  0.00    -0.246 OA
ATOM     10  OE1 GLU A   1      39.838  60.552  10.592  0.00  0.00    -0.246 OA
ENDBRANCH   7   8
ENDBRANCH   6   7
ENDBRANCH   1   6
TORSDOF 5
REMARK  Name = ../refined-set-2016/2f7o/2f7o_pocket.pdb
REMARK  137 active torsions:
REMARK  status: ('A' for Active; 'I' for Inactive)
REMARK    1  A    between atoms: _1  and  _3
REMARK    2  A    between atoms: _14  and  _17
REMARK    3  A    between atoms: _17  and  _18
REMARK    4  A    between atoms: _25  and  _26
REMARK    5  A    between atoms: _33  and  _34
REMARK    6  A    between atoms: _39  and  _41
REMARK    7  A    between atoms: _41  and  _42
REMARK    8  A    between atoms: _44  and  _46
REMARK    9  A    between atoms: _46  and  _47
REMARK   10  A    between atoms: _46  and  _49
REMARK   11  A    between atoms: _49  and  _50
REMARK   12  A    between atoms: _60  and  _62
REMARK   13  A    between atoms: _62  and  _63
REMARK   14  A    between atoms: _62  and  _65
REMARK   15  A    between atoms: _65  and  _66
REMARK   16  A    between atoms: _69  and  _71
REMARK   17  A    between atoms: _71  and  _72
REMARK   18  A    between atoms: _71  and  _74
REMARK   19  A    between atoms: _74  and  _75
REMARK   20  A    between atoms: _80  and  _81
REMARK   21  A    between atoms: _83  and  _85
REMARK   22  A    between atoms: _85  and  _86
REMARK   23  A    between atoms: _85  and  _88
REMARK   24  A    between atoms: _88  and  _89
REMARK   25  A    between atoms: _89  and  _90
REMARK   26  A    between atoms: _93  and  _95
REMARK   27  A    between atoms: _95  and  _96
REMARK   28  A    between atoms: _95  and  _98
REMARK   29  A    between atoms: _98  and  _99
REMARK   30  A    between atoms: _99  and  _100
REMARK   31  A    between atoms: _102  and  _104
REMARK   32  A    between atoms: _104  and  _105
REMARK   33  A    between atoms: _104  and  _107
REMARK   34  A    between atoms: _107  and  _108
REMARK   35  A    between atoms: _111  and  _113
REMARK   36  A    between atoms: _113  and  _114
REMARK   37  A    between atoms: _113  and  _116
REMARK   38  A    between atoms: _116  and  _117
REMARK   39  A    between atoms: _117  and  _119
REMARK   40  A    between atoms: _119  and  ZN_376
REMARK   41  A    between atoms: _121  and  _122
REMARK   42  A    between atoms: _127  and  _129
REMARK   43  A    between atoms: _129  and  _130
REMARK   44  A    between atoms: _129  and  _132
REMARK   45  A    between atoms: _132  and  _133
REMARK   46  A    between atoms: _139  and  _141
REMARK   47  A    between atoms: _141  and  _142
REMARK   48  A    between atoms: _141  and  _144
REMARK   49  A    between atoms: _144  and  _145
REMARK   50  A    between atoms: _145  and  _146
REMARK   51  A    between atoms: _146  and  _147
REMARK   52  A    between atoms: _156  and  _158
REMARK   53  A    between atoms: _158  and  _159
REMARK   54  A    between atoms: _158  and  _161
REMARK   55  A    between atoms: _161  and  _162
REMARK   56  A    between atoms: _167  and  _168
REMARK   57  A    between atoms: _170  and  _172
REMARK   58  A    between atoms: _172  and  _173
REMARK   59  A    between atoms: _172  and  _175
REMARK   60  A    between atoms: _175  and  _176
REMARK   61  A    between atoms: _178  and  _180
REMARK   62  A    between atoms: _180  and  _181
REMARK   63  A    between atoms: _180  and  _183
REMARK   64  A    between atoms: _183  and  _184
REMARK   65  A    between atoms: _189  and  _190
REMARK   66  A    between atoms: _192  and  _194
REMARK   67  A    between atoms: _194  and  _195
REMARK   68  A    between atoms: _194  and  _197
REMARK   69  A    between atoms: _197  and  _198
REMARK   70  A    between atoms: _201  and  _203
REMARK   71  A    between atoms: _203  and  _204
REMARK   72  A    between atoms: _203  and  _206
REMARK   73  A    between atoms: _206  and  _207
REMARK   74  A    between atoms: _210  and  _212
REMARK   75  A    between atoms: _212  and  _213
REMARK   76  A    between atoms: _212  and  _215
REMARK   77  A    between atoms: _215  and  _216
REMARK   78  A    between atoms: _222  and  _224
REMARK   79  A    between atoms: _224  and  _225
REMARK   80  A    between atoms: _224  and  _227
REMARK   81  A    between atoms: _227  and  _228
REMARK   82  A    between atoms: _233  and  _234
REMARK   83  A    between atoms: _236  and  _238
REMARK   84  A    between atoms: _238  and  _239
REMARK   85  A    between atoms: _238  and  _241
REMARK   86  A    between atoms: _241  and  _242
REMARK   87  A    between atoms: _245  and  _247
REMARK   88  A    between atoms: _247  and  _248
REMARK   89  A    between atoms: _247  and  _250
REMARK   90  A    between atoms: _250  and  _251
REMARK   91  A    between atoms: _261  and  _263
REMARK   92  A    between atoms: _263  and  _264
REMARK   93  A    between atoms: _263  and  _266
REMARK   94  A    between atoms: _266  and  _267
REMARK   95  A    between atoms: _272  and  _274
REMARK   96  A    between atoms: _274  and  _275
REMARK   97  A    between atoms: _274  and  _277
REMARK   98  A    between atoms: _277  and  _278
REMARK   99  A    between atoms: _282  and  ZN_376
REMARK  100  A    between atoms: _283  and  _285
REMARK  101  A    between atoms: _285  and  _286
REMARK  102  A    between atoms: _285  and  _288
REMARK  103  A    between atoms: _288  and  _289
REMARK  104  A    between atoms: _292  and  _294
REMARK  105  A    between atoms: _294  and  _295
REMARK  106  A    between atoms: _297  and  _299
REMARK  107  A    between atoms: _299  and  _300
REMARK  108  A    between atoms: _299  and  _302
REMARK  109  A    between atoms: _302  and  _303
REMARK  110  A    between atoms: _306  and  _308
REMARK  111  A    between atoms: _308  and  _309
REMARK  112  A    between atoms: _308  and  _311
REMARK  113  A    between atoms: _311  and  _312
REMARK  114  A    between atoms: _315  and  _317
REMARK  115  A    between atoms: _317  and  _318
REMARK  116  A    between atoms: _321  and  _323
REMARK  117  A    between atoms: _323  and  _324
REMARK  118  A    between atoms: _323  and  _326
REMARK  119  A    between atoms: _326  and  _327
REMARK  120  A    between atoms: _332  and  _333
REMARK  121  A    between atoms: _335  and  _337
REMARK  122  A    between atoms: _337  and  _338
REMARK  123  A    between atoms: _337  and  _340
REMARK  124  A    between atoms: _340  and  _341
REMARK  125  A    between atoms: _341  and  _342
REMARK  126  A    between atoms: _345  and  _347
REMARK  127  A    between atoms: _347  and  _348
REMARK  128  A    between atoms: _347  and  _350
REMARK  129  A    between atoms: _350  and  _351
REMARK  130  A    between atoms: _351  and  _352
REMARK  131  A    between atoms: _352  and  _353
REMARK  132  A    between atoms: _362  and  _364
REMARK  133  A    between atoms: _364  and  _365
REMARK  134  A    between atoms: _367  and  _369
REMARK  135  A    between atoms: _369  and  _370
REMARK  136  A    between atoms: _369  and  _372
REMARK  137  A    between atoms: _372  and  _373
REMARK                            x       y       z     vdW  Elec       q    Type
REMARK                         _______ _______ _______ _____ _____    ______ ____
ROOT
ATOM      1  CA  MET A   1      40.064  59.327   4.713  0.00  0.00    +0.134 C 
ENDROOT
BRANCH   1   2
ATOM      2  N   MET A   1      41.167  60.314   5.025  0.00  0.00    -0.239 NA
ATOM      3  H   MET A   1      40.923  61.252   5.402  0.00  0.00    +0.142 HD
ENDBRANCH   1   2
BRANCH   1   4
ATOM      4  C   MET A   1      39.536  60.084   3.485  0.00  0.00    +0.224 C 
ATOM      5  O   MET A   1      38.768  61.061   3.613  0.00  0.00    -0.287 OA
ENDBRANCH   1   4
BRANCH   1   6
ATOM      6  CB  MET A   1      39.063  59.326   5.830  0.00  0.00    +0.037 C 
BRANCH   6   7
ATOM      7  CG  MET A   1      37.798  58.629   5.509  0.00  0.00    +0.059 C 
BRANCH   7   8
ATOM      8  SD  MET A   1      36.600  58.613   6.931  0.00  0.00    -0.139 S 
ATOM      9  CE  MET A   1      37.618  57.849   8.279  0.00  0.00    +0.069 C 
ENDBRANCH   7   8
ENDBRANCH   6   7
ENDBRANCH   1   6
TORSDOF 5
REMARK  Name = ../refined-set-2016/2f7o/2f7o_pocket.pdb
REMARK  137 active torsions:
REMARK  status: ('A' for Active; 'I' for Inactive)
REMARK    1  A    between atoms: _1  and  _3
REMARK    2  A    between atoms: _14  and  _17
REMARK    3  A    between atoms: _17  and  _18
REMARK    4  A    between atoms: _25  and  _26
REMARK    5  A    between atoms: _33  and  _34
REMARK    6  A    between atoms: _39  and  _41
REMARK    7  A    between atoms: _41  and  _42
REMARK    8  A    between atoms: _44  and  _46
REMARK    9  A    between atoms: _46  and  _47
REMARK   10  A    between atoms: _46  and  _49
REMARK   11  A    between atoms: _49  and  _50
REMARK   12  A    between atoms: _60  and  _62
REMARK   13  A    between atoms: _62  and  _63
REMARK   14  A    between atoms: _62  and  _65
REMARK   15  A    between atoms: _65  and  _66
REMARK   16  A    between atoms: _69  and  _71
REMARK   17  A    between atoms: _71  and  _72
REMARK   18  A    between atoms: _71  and  _74
REMARK   19  A    between atoms: _74  and  _75
REMARK   20  A    between atoms: _80  and  _81
REMARK   21  A    between atoms: _83  and  _85
REMARK   22  A    between atoms: _85  and  _86
REMARK   23  A    between atoms: _85  and  _88
REMARK   24  A    between atoms: _88  and  _89
REMARK   25  A    between atoms: _89  and  _90
REMARK   26  A    between atoms: _93  and  _95
REMARK   27  A    between atoms: _95  and  _96
REMARK   28  A    between atoms: _95  and  _98
REMARK   29  A    between atoms: _98  and  _99
REMARK   30  A    between atoms: _99  and  _100
REMARK   31  A    between atoms: _102  and  _104
REMARK   32  A    between atoms: _104  and  _105
REMARK   33  A    between atoms: _104  and  _107
REMARK   34  A    between atoms: _107  and  _108
REMARK   35  A    between atoms: _111  and  _113
REMARK   36  A    between atoms: _113  and  _114
REMARK   37  A    between atoms: _113  and  _116
REMARK   38  A    between atoms: _116  and  _117
REMARK   39  A    between atoms: _117  and  _119
REMARK   40  A    between atoms: _119  and  ZN_376
REMARK   41  A    between atoms: _121  and  _122
REMARK   42  A    between atoms: _127  and  _129
REMARK   43  A    between atoms: _129  and  _130
REMARK   44  A    between atoms: _129  and  _132
REMARK   45  A    between atoms: _132  and  _133
REMARK   46  A    between atoms: _139  and  _141
REMARK   47  A    between atoms: _141  and  _142
REMARK   48  A    between atoms: _141  and  _144
REMARK   49  A    between atoms: _144  and  _145
REMARK   50  A    between atoms: _145  and  _146
REMARK   51  A    between atoms: _146  and  _147
REMARK   52  A    between atoms: _156  and  _158
REMARK   53  A    between atoms: _158  and  _159
REMARK   54  A    between atoms: _158  and  _161
REMARK   55  A    between atoms: _161  and  _162
REMARK   56  A    between atoms: _167  and  _168
REMARK   57  A    between atoms: _170  and  _172
REMARK   58  A    between atoms: _172  and  _173
REMARK   59  A    between atoms: _172  and  _175
REMARK   60  A    between atoms: _175  and  _176
REMARK   61  A    between atoms: _178  and  _180
REMARK   62  A    between atoms: _180  and  _181
REMARK   63  A    between atoms: _180  and  _183
REMARK   64  A    between atoms: _183  and  _184
REMARK   65  A    between atoms: _189  and  _190
REMARK   66  A    between atoms: _192  and  _194
REMARK   67  A    between atoms: _194  and  _195
REMARK   68  A    between atoms: _194  and  _197
REMARK   69  A    between atoms: _197  and  _198
REMARK   70  A    between atoms: _201  and  _203
REMARK   71  A    between atoms: _203  and  _204
REMARK   72  A    between atoms: _203  and  _206
REMARK   73  A    between atoms: _206  and  _207
REMARK   74  A    between atoms: _210  and  _212
REMARK   75  A    between atoms: _212  and  _213
REMARK   76  A    between atoms: _212  and  _215
REMARK   77  A    between atoms: _215  and  _216
REMARK   78  A    between atoms: _222  and  _224
REMARK   79  A    between atoms: _224  and  _225
REMARK   80  A    between atoms: _224  and  _227
REMARK   81  A    between atoms: _227  and  _228
REMARK   82  A    between atoms: _233  and  _234
REMARK   83  A    between atoms: _236  and  _238
REMARK   84  A    between atoms: _238  and  _239
REMARK   85  A    between atoms: _238  and  _241
REMARK   86  A    between atoms: _241  and  _242
REMARK   87  A    between atoms: _245  and  _247
REMARK   88  A    between atoms: _247  and  _248
REMARK   89  A    between atoms: _247  and  _250
REMARK   90  A    between atoms: _250  and  _251
REMARK   91  A    between atoms: _261  and  _263
REMARK   92  A    between atoms: _263  and  _264
REMARK   93  A    between atoms: _263  and  _266
REMARK   94  A    between atoms: _266  and  _267
REMARK   95  A    between atoms: _272  and  _274
REMARK   96  A    between atoms: _274  and  _275
REMARK   97  A    between atoms: _274  and  _277
REMARK   98  A    between atoms: _277  and  _278
REMARK   99  A    between atoms: _282  and  ZN_376
REMARK  100  A    between atoms: _283  and  _285
REMARK  101  A    between atoms: _285  and  _286
REMARK  102  A    between atoms: _285  and  _288
REMARK  103  A    between atoms: _288  and  _289
REMARK  104  A    between atoms: _292  and  _294
REMARK  105  A    between atoms: _294  and  _295
REMARK  106  A    between atoms: _297  and  _299
REMARK  107  A    between atoms: _299  and  _300
REMARK  108  A    between atoms: _299  and  _302
REMARK  109  A    between atoms: _302  and  _303
REMARK  110  A    between atoms: _306  and  _308
REMARK  111  A    between atoms: _308  and  _309
REMARK  112  A    between atoms: _308  and  _311
REMARK  113  A    between atoms: _311  and  _312
REMARK  114  A    between atoms: _315  and  _317
REMARK  115  A    between atoms: _317  and  _318
REMARK  116  A    between atoms: _321  and  _323
REMARK  117  A    between atoms: _323  and  _324
REMARK  118  A    between atoms: _323  and  _326
REMARK  119  A    between atoms: _326  and  _327
REMARK  120  A    between atoms: _332  and  _333
REMARK  121  A    between atoms: _335  and  _337
REMARK  122  A    between atoms: _337  and  _338
REMARK  123  A    between atoms: _337  and  _340
REMARK  124  A    between atoms: _340  and  _341
REMARK  125  A    between atoms: _341  and  _342
REMARK  126  A    between atoms: _345  and  _347
REMARK  127  A    between atoms: _347  and  _348
REMARK  128  A    between atoms: _347  and  _350
REMARK  129  A    between atoms: _350  and  _351
REMARK  130  A    between atoms: _351  and  _352
REMARK  131  A    between atoms: _352  and  _353
REMARK  132  A    between atoms: _362  and  _364
REMARK  133  A    between atoms: _364  and  _365
REMARK  134  A    between atoms: _367  and  _369
REMARK  135  A    between atoms: _369  and  _370
REMARK  136  A    between atoms: _369  and  _372
REMARK  137  A    between atoms: _372  and  _373
REMARK                            x       y       z     vdW  Elec       q    Type
REMARK                         _______ _______ _______ _____ _____    ______ ____
ROOT
ATOM      1  NE  ARG A   1      28.713  61.129   6.030  0.00  0.00    -0.265 N 
ATOM      2  CZ  ARG A   1      27.806  61.856   6.701  0.00  0.00    +0.342 C 
ATOM      3  NH2 ARG A   1      28.224  62.651   7.650  0.00  0.00    -0.292 N 
ATOM      4 HH21 ARG A   1      27.542  63.225   8.185  0.00  0.00    +0.255 HD
ATOM      5 HH22 ARG A   1      29.239  62.709   7.870  0.00  0.00    +0.255 HD
ATOM      6  NH1 ARG A   1      26.499  61.796   6.376  0.00  0.00    -0.292 N 
ATOM      7 HH11 ARG A   1      25.805  62.364   6.903  0.00  0.00    +0.255 HD
ATOM      8 HH12 ARG A   1      26.184  61.182   5.598  0.00  0.00    +0.255 HD
ATOM      9  HE  ARG A   1      29.705  61.180   6.338  0.00  0.00    +0.259 HD
ENDROOT
BRANCH   1  10
ATOM     10  CD  ARG A   1      28.389  60.271   4.893  0.00  0.00    +0.174 C 
BRANCH  10  11
ATOM     11  CG  ARG A   1      28.115  58.823   5.201  0.00  0.00    +0.045 C 
BRANCH  11  12
ATOM     12  CB  ARG A   1      27.978  58.041   3.885  0.00  0.00    +0.029 C 
BRANCH  12  13
ATOM     13  CA  ARG A   1      27.360  56.636   4.076  0.00  0.00    +0.133 C 
BRANCH  13  14
ATOM     14  N   ARG A   1      28.340  55.754   4.690  0.00  0.00    -0.239 NA
ATOM     15  H   ARG A   1      29.356  55.859   4.494  0.00  0.00    +0.142 HD
ENDBRANCH  13  14
BRANCH  13  16
ATOM     16  C   ARG A   1      26.819  56.118   2.779  0.00  0.00    +0.224 C 
ATOM     17  O   ARG A   1      27.359  56.380   1.698  0.00  0.00    -0.287 OA
ENDBRANCH  13  16
ENDBRANCH  12  13
ENDBRANCH  11  12
ENDBRANCH  10  11
ENDBRANCH   1  10
TORSDOF 6
REMARK  Name = ../refined-set-2016/2f7o/2f7o_pocket.pdb
REMARK  137 active torsions:
REMARK  status: ('A' for Active; 'I' for Inactive)
REMARK    1  A    between atoms: _1  and  _3
REMARK    2  A    between atoms: _14  and  _17
REMARK    3  A    between atoms: _17  and  _18
REMARK    4  A    between atoms: _25  and  _26
REMARK    5  A    between atoms: _33  and  _34
REMARK    6  A    between atoms: _39  and  _41
REMARK    7  A    between atoms: _41  and  _42
REMARK    8  A    between atoms: _44  and  _46
REMARK    9  A    between atoms: _46  and  _47
REMARK   10  A    between atoms: _46  and  _49
REMARK   11  A    between atoms: _49  and  _50
REMARK   12  A    between atoms: _60  and  _62
REMARK   13  A    between atoms: _62  and  _63
REMARK   14  A    between atoms: _62  and  _65
REMARK   15  A    between atoms: _65  and  _66
REMARK   16  A    between atoms: _69  and  _71
REMARK   17  A    between atoms: _71  and  _72
REMARK   18  A    between atoms: _71  and  _74
REMARK   19  A    between atoms: _74  and  _75
REMARK   20  A    between atoms: _80  and  _81
REMARK   21  A    between atoms: _83  and  _85
REMARK   22  A    between atoms: _85  and  _86
REMARK   23  A    between atoms: _85  and  _88
REMARK   24  A    between atoms: _88  and  _89
REMARK   25  A    between atoms: _89  and  _90
REMARK   26  A    between atoms: _93  and  _95
REMARK   27  A    between atoms: _95  and  _96
REMARK   28  A    between atoms: _95  and  _98
REMARK   29  A    between atoms: _98  and  _99
REMARK   30  A    between atoms: _99  and  _100
REMARK   31  A    between atoms: _102  and  _104
REMARK   32  A    between atoms: _104  and  _105
REMARK   33  A    between atoms: _104  and  _107
REMARK   34  A    between atoms: _107  and  _108
REMARK   35  A    between atoms: _111  and  _113
REMARK   36  A    between atoms: _113  and  _114
REMARK   37  A    between atoms: _113  and  _116
REMARK   38  A    between atoms: _116  and  _117
REMARK   39  A    between atoms: _117  and  _119
REMARK   40  A    between atoms: _119  and  ZN_376
REMARK   41  A    between atoms: _121  and  _122
REMARK   42  A    between atoms: _127  and  _129
REMARK   43  A    between atoms: _129  and  _130
REMARK   44  A    between atoms: _129  and  _132
REMARK   45  A    between atoms: _132  and  _133
REMARK   46  A    between atoms: _139  and  _141
REMARK   47  A    between atoms: _141  and  _142
REMARK   48  A    between atoms: _141  and  _144
REMARK   49  A    between atoms: _144  and  _145
REMARK   50  A    between atoms: _145  and  _146
REMARK   51  A    between atoms: _146  and  _147
REMARK   52  A    between atoms: _156  and  _158
REMARK   53  A    between atoms: _158  and  _159
REMARK   54  A    between atoms: _158  and  _161
REMARK   55  A    between atoms: _161  and  _162
REMARK   56  A    between atoms: _167  and  _168
REMARK   57  A    between atoms: _170  and  _172
REMARK   58  A    between atoms: _172  and  _173
REMARK   59  A    between atoms: _172  and  _175
REMARK   60  A    between atoms: _175  and  _176
REMARK   61  A    between atoms: _178  and  _180
REMARK   62  A    between atoms: _180  and  _181
REMARK   63  A    between atoms: _180  and  _183
REMARK   64  A    between atoms: _183  and  _184
REMARK   65  A    between atoms: _189  and  _190
REMARK   66  A    between atoms: _192  and  _194
REMARK   67  A    between atoms: _194  and  _195
REMARK   68  A    between atoms: _194  and  _197
REMARK   69  A    between atoms: _197  and  _198
REMARK   70  A    between atoms: _201  and  _203
REMARK   71  A    between atoms: _203  and  _204
REMARK   72  A    between atoms: _203  and  _206
REMARK   73  A    between atoms: _206  and  _207
REMARK   74  A    between atoms: _210  and  _212
REMARK   75  A    between atoms: _212  and  _213
REMARK   76  A    between atoms: _212  and  _215
REMARK   77  A    between atoms: _215  and  _216
REMARK   78  A    between atoms: _222  and  _224
REMARK   79  A    between atoms: _224  and  _225
REMARK   80  A    between atoms: _224  and  _227
REMARK   81  A    between atoms: _227  and  _228
REMARK   82  A    between atoms: _233  and  _234
REMARK   83  A    between atoms: _236  and  _238
REMARK   84  A    between atoms: _238  and  _239
REMARK   85  A    between atoms: _238  and  _241
REMARK   86  A    between atoms: _241  and  _242
REMARK   87  A    between atoms: _245  and  _247
REMARK   88  A    between atoms: _247  and  _248
REMARK   89  A    between atoms: _247  and  _250
REMARK   90  A    between atoms: _250  and  _251
REMARK   91  A    between atoms: _261  and  _263
REMARK   92  A    between atoms: _263  and  _264
REMARK   93  A    between atoms: _263  and  _266
REMARK   94  A    between atoms: _266  and  _267
REMARK   95  A    between atoms: _272  and  _274
REMARK   96  A    between atoms: _274  and  _275
REMARK   97  A    between atoms: _274  and  _277
REMARK   98  A    between atoms: _277  and  _278
REMARK   99  A    between atoms: _282  and  ZN_376
REMARK  100  A    between atoms: _283  and  _285
REMARK  101  A    between atoms: _285  and  _286
REMARK  102  A    between atoms: _285  and  _288
REMARK  103  A    between atoms: _288  and  _289
REMARK  104  A    between atoms: _292  and  _294
REMARK  105  A    between atoms: _294  and  _295
REMARK  106  A    between atoms: _297  and  _299
REMARK  107  A    between atoms: _299  and  _300
REMARK  108  A    between atoms: _299  and  _302
REMARK  109  A    between atoms: _302  and  _303
REMARK  110  A    between atoms: _306  and  _308
REMARK  111  A    between atoms: _308  and  _309
REMARK  112  A    between atoms: _308  and  _311
REMARK  113  A    between atoms: _311  and  _312
REMARK  114  A    between atoms: _315  and  _317
REMARK  115  A    between atoms: _317  and  _318
REMARK  116  A    between atoms: _321  and  _323
REMARK  117  A    between atoms: _323  and  _324
REMARK  118  A    between atoms: _323  and  _326
REMARK  119  A    between atoms: _326  and  _327
REMARK  120  A    between atoms: _332  and  _333
REMARK  121  A    between atoms: _335  and  _337
REMARK  122  A    between atoms: _337  and  _338
REMARK  123  A    between atoms: _337  and  _340
REMARK  124  A    between atoms: _340  and  _341
REMARK  125  A    between atoms: _341  and  _342
REMARK  126  A    between atoms: _345  and  _347
REMARK  127  A    between atoms: _347  and  _348
REMARK  128  A    between atoms: _347  and  _350
REMARK  129  A    between atoms: _350  and  _351
REMARK  130  A    between atoms: _351  and  _352
REMARK  131  A    between atoms: _352  and  _353
REMARK  132  A    between atoms: _362  and  _364
REMARK  133  A    between atoms: _364  and  _365
REMARK  134  A    between atoms: _367  and  _369
REMARK  135  A    between atoms: _369  and  _370
REMARK  136  A    between atoms: _369  and  _372
REMARK  137  A    between atoms: _372  and  _373
REMARK                            x       y       z     vdW  Elec       q    Type
REMARK                         _______ _______ _______ _____ _____    ______ ____
ROOT
ATOM      1  CA  SER A   2      25.195  58.062  11.362  0.00  0.00    +0.178 C 
ENDROOT
BRANCH   1   3
ATOM      2  C   TYR A   1      23.236  57.685   9.978  0.00  0.00    +0.239 C 
ATOM      3  N   SER A   2      23.916  57.395  11.061  0.00  0.00    -0.295 N 
ATOM      4  H   SER A   2      23.546  56.681  11.720  0.00  0.00    +0.150 HD
ATOM      5  O   TYR A   1      23.644  58.490   9.136  0.00  0.00    -0.274 OA
BRANCH   2   6
ATOM      6  CA  TYR A   1      21.910  56.972   9.770  0.00  0.00    +0.149 C 
BRANCH   6   7
ATOM      7  N   TYR A   1      21.788  55.653  10.371  0.00  0.00    -0.238 NA
ATOM      8  H   TYR A   1      21.120  55.513  11.155  0.00  0.00    +0.142 HD
ENDBRANCH   6   7
BRANCH   6   9
ATOM      9  CB  TYR A   1      20.678  57.799  10.233  0.00  0.00    +0.053 C 
BRANCH   9  10
ATOM     10  CG  TYR A   1      20.782  59.292  10.125  0.00  0.00    -0.020 A 
ATOM     11  CD2 TYR A   1      21.245  60.029  11.222  0.00  0.00    -0.001 A 
ATOM     12  CE2 TYR A   1      21.323  61.442  11.199  0.00  0.00    +0.036 A 
ATOM     13  CZ  TYR A   1      20.943  62.086  10.064  0.00  0.00    +0.134 A 
ATOM     14  CE1 TYR A   1      20.487  61.381   8.938  0.00  0.00    +0.036 A 
ATOM     15  CD1 TYR A   1      20.408  59.978   8.967  0.00  0.00    -0.001 A 
BRANCH  13  16
ATOM     16  OH  TYR A   1      21.009  63.483  10.060  0.00  0.00    -0.506 OA
ATOM     17  HH  TYR A   1      20.707  63.824   9.181  0.00  0.00    +0.292 HD
ENDBRANCH  13  16
ENDBRANCH   9  10
ENDBRANCH   6   9
ENDBRANCH   2   6
ENDBRANCH   1   3
BRANCH   1  18
ATOM     18  C   SER A   2      26.152  57.099  12.033  0.00  0.00    +0.243 C 
ATOM     19  O   SER A   2      25.736  56.034  12.443  0.00  0.00    -0.273 OA
ATOM     20  N   TYR A   3      27.420  57.496  12.172  0.00  0.00    -0.298 N 
ATOM     21  H   TYR A   3      27.724  58.388  11.731  0.00  0.00    +0.150 HD
BRANCH  20  22
ATOM     22  CA  TYR A   3      28.394  56.704  12.932  0.00  0.00    +0.141 C 
BRANCH  22  23
ATOM     23  C   TYR A   3      28.508  57.209  14.360  0.00  0.00    +0.227 C 
ATOM     24  O   TYR A   3      29.356  56.719  15.147  0.00  0.00    -0.286 OA
ENDBRANCH  22  23
BRANCH  22  25
ATOM     25  CB  TYR A   3      29.798  56.768  12.278  0.00  0.00    +0.054 C 
BRANCH  25  26
ATOM     26  CG  TYR A   3      30.298  58.174  11.988  0.00  0.00    -0.020 A 
ATOM     27  CD2 TYR A   3      30.745  58.977  13.030  0.00  0.00    -0.001 A 
ATOM     28  CE2 TYR A   3      31.190  60.309  12.827  0.00  0.00    +0.036 A 
ATOM     29  CZ  TYR A   3      31.179  60.789  11.517  0.00  0.00    +0.134 A 
ATOM     30  CE1 TYR A   3      30.746  60.011  10.455  0.00  0.00    +0.036 A 
ATOM     31  CD1 TYR A   3      30.297  58.698  10.683  0.00  0.00    -0.001 A 
BRANCH  29  32
ATOM     32  OH  TYR A   3      31.613  62.071  11.190  0.00  0.00    -0.506 OA
ATOM     33  HH  TYR A   3      31.899  62.541  12.013  0.00  0.00    +0.292 HD
ENDBRANCH  29  32
ENDBRANCH  25  26
ENDBRANCH  22  25
ENDBRANCH  20  22
ENDBRANCH   1  18
BRANCH   1  34
ATOM     34  CB  SER A   2      24.901  59.220  12.342  0.00  0.00    +0.166 C 
BRANCH  34  35
ATOM     35  OG  SER A   2      26.105  59.920  12.697  0.00  0.00    -0.380 OA
ATOM     36  H   SER A   2      26.520  60.295  11.880  0.00  0.00    +0.211 HD
ENDBRANCH  34  35
ENDBRANCH   1  34
TORSDOF 14
REMARK  Name = ../refined-set-2016/2f7o/2f7o_pocket.pdb
REMARK  137 active torsions:
REMARK  status: ('A' for Active; 'I' for Inactive)
REMARK    1  A    between atoms: _1  and  _3
REMARK    2  A    between atoms: _14  and  _17
REMARK    3  A    between atoms: _17  and  _18
REMARK    4  A    between atoms: _25  and  _26
REMARK    5  A    between atoms: _33  and  _34
REMARK    6  A    between atoms: _39  and  _41
REMARK    7  A    between atoms: _41  and  _42
REMARK    8  A    between atoms: _44  and  _46
REMARK    9  A    between atoms: _46  and  _47
REMARK   10  A    between atoms: _46  and  _49
REMARK   11  A    between atoms: _49  and  _50
REMARK   12  A    between atoms: _60  and  _62
REMARK   13  A    between atoms: _62  and  _63
REMARK   14  A    between atoms: _62  and  _65
REMARK   15  A    between atoms: _65  and  _66
REMARK   16  A    between atoms: _69  and  _71
REMARK   17  A    between atoms: _71  and  _72
REMARK   18  A    between atoms: _71  and  _74
REMARK   19  A    between atoms: _74  and  _75
REMARK   20  A    between atoms: _80  and  _81
REMARK   21  A    between atoms: _83  and  _85
REMARK   22  A    between atoms: _85  and  _86
REMARK   23  A    between atoms: _85  and  _88
REMARK   24  A    between atoms: _88  and  _89
REMARK   25  A    between atoms: _89  and  _90
REMARK   26  A    between atoms: _93  and  _95
REMARK   27  A    between atoms: _95  and  _96
REMARK   28  A    between atoms: _95  and  _98
REMARK   29  A    between atoms: _98  and  _99
REMARK   30  A    between atoms: _99  and  _100
REMARK   31  A    between atoms: _102  and  _104
REMARK   32  A    between atoms: _104  and  _105
REMARK   33  A    between atoms: _104  and  _107
REMARK   34  A    between atoms: _107  and  _108
REMARK   35  A    between atoms: _111  and  _113
REMARK   36  A    between atoms: _113  and  _114
REMARK   37  A    between atoms: _113  and  _116
REMARK   38  A    between atoms: _116  and  _117
REMARK   39  A    between atoms: _117  and  _119
REMARK   40  A    between atoms: _119  and  ZN_376
REMARK   41  A    between atoms: _121  and  _122
REMARK   42  A    between atoms: _127  and  _129
REMARK   43  A    between atoms: _129  and  _130
REMARK   44  A    between atoms: _129  and  _132
REMARK   45  A    between atoms: _132  and  _133
REMARK   46  A    between atoms: _139  and  _141
REMARK   47  A    between atoms: _141  and  _142
REMARK   48  A    between atoms: _141  and  _144
REMARK   49  A    between atoms: _144  and  _145
REMARK   50  A    between atoms: _145  and  _146
REMARK   51  A    between atoms: _146  and  _147
REMARK   52  A    between atoms: _156  and  _158
REMARK   53  A    between atoms: _158  and  _159
REMARK   54  A    between atoms: _158  and  _161
REMARK   55  A    between atoms: _161  and  _162
REMARK   56  A    between atoms: _167  and  _168
REMARK   57  A    between atoms: _170  and  _172
REMARK   58  A    between atoms: _172  and  _173
REMARK   59  A    between atoms: _172  and  _175
REMARK   60  A    between atoms: _175  and  _176
REMARK   61  A    between atoms: _178  and  _180
REMARK   62  A    between atoms: _180  and  _181
REMARK   63  A    between atoms: _180  and  _183
REMARK   64  A    between atoms: _183  and  _184
REMARK   65  A    between atoms: _189  and  _190
REMARK   66  A    between atoms: _192  and  _194
REMARK   67  A    between atoms: _194  and  _195
REMARK   68  A    between atoms: _194  and  _197
REMARK   69  A    between atoms: _197  and  _198
REMARK   70  A    between atoms: _201  and  _203
REMARK   71  A    between atoms: _203  and  _204
REMARK   72  A    between atoms: _203  and  _206
REMARK   73  A    between atoms: _206  and  _207
REMARK   74  A    between atoms: _210  and  _212
REMARK   75  A    between atoms: _212  and  _213
REMARK   76  A    between atoms: _212  and  _215
REMARK   77  A    between atoms: _215  and  _216
REMARK   78  A    between atoms: _222  and  _224
REMARK   79  A    between atoms: _224  and  _225
REMARK   80  A    between atoms: _224  and  _227
REMARK   81  A    between atoms: _227  and  _228
REMARK   82  A    between atoms: _233  and  _234
REMARK   83  A    between atoms: _236  and  _238
REMARK   84  A    between atoms: _238  and  _239
REMARK   85  A    between atoms: _238  and  _241
REMARK   86  A    between atoms: _241  and  _242
REMARK   87  A    between atoms: _245  and  _247
REMARK   88  A    between atoms: _247  and  _248
REMARK   89  A    between atoms: _247  and  _250
REMARK   90  A    between atoms: _250  and  _251
REMARK   91  A    between atoms: _261  and  _263
REMARK   92  A    between atoms: _263  and  _264
REMARK   93  A    between atoms: _263  and  _266
REMARK   94  A    between atoms: _266  and  _267
REMARK   95  A    between atoms: _272  and  _274
REMARK   96  A    between atoms: _274  and  _275
REMARK   97  A    between atoms: _274  and  _277
REMARK   98  A    between atoms: _277  and  _278
REMARK   99  A    between atoms: _282  and  ZN_376
REMARK  100  A    between atoms: _283  and  _285
REMARK  101  A    between atoms: _285  and  _286
REMARK  102  A    between atoms: _285  and  _288
REMARK  103  A    between atoms: _288  and  _289
REMARK  104  A    between atoms: _292  and  _294
REMARK  105  A    between atoms: _294  and  _295
REMARK  106  A    between atoms: _297  and  _299
REMARK  107  A    between atoms: _299  and  _300
REMARK  108  A    between atoms: _299  and  _302
REMARK  109  A    between atoms: _302  and  _303
REMARK  110  A    between atoms: _306  and  _308
REMARK  111  A    between atoms: _308  and  _309
REMARK  112  A    between atoms: _308  and  _311
REMARK  113  A    between atoms: _311  and  _312
REMARK  114  A    between atoms: _315  and  _317
REMARK  115  A    between atoms: _317  and  _318
REMARK  116  A    between atoms: _321  and  _323
REMARK  117  A    between atoms: _323  and  _324
REMARK  118  A    between atoms: _323  and  _326
REMARK  119  A    between atoms: _326  and  _327
REMARK  120  A    between atoms: _332  and  _333
REMARK  121  A    between atoms: _335  and  _337
REMARK  122  A    between atoms: _337  and  _338
REMARK  123  A    between atoms: _337  and  _340
REMARK  124  A    between atoms: _340  and  _341
REMARK  125  A    between atoms: _341  and  _342
REMARK  126  A    between atoms: _345  and  _347
REMARK  127  A    between atoms: _347  and  _348
REMARK  128  A    between atoms: _347  and  _350
REMARK  129  A    between atoms: _350  and  _351
REMARK  130  A    between atoms: _351  and  _352
REMARK  131  A    between atoms: _352  and  _353
REMARK  132  A    between atoms: _362  and  _364
REMARK  133  A    between atoms: _364  and  _365
REMARK  134  A    between atoms: _367  and  _369
REMARK  135  A    between atoms: _369  and  _370
REMARK  136  A    between atoms: _369  and  _372
REMARK  137  A    between atoms: _372  and  _373
REMARK                            x       y       z     vdW  Elec       q    Type
REMARK                         _______ _______ _______ _____ _____    ______ ____
ROOT
ATOM      1  CA  ASP A   2      33.908  63.848  15.632  0.00  0.00    +0.160 C 
ENDROOT
BRANCH   1   4
ATOM      2  C   ASP A   1      33.276  61.745  16.556  0.00  0.00    +0.239 C 
ATOM      3  O   ASP A   1      34.467  61.423  16.740  0.00  0.00    -0.274 OA
ATOM      4  N   ASP A   2      32.909  62.932  16.148  0.00  0.00    -0.297 N 
ATOM      5  H   ASP A   2      31.910  63.217  16.193  0.00  0.00    +0.150 HD
BRANCH   2   6
ATOM      6  CA  ASP A   1      32.129  60.809  16.973  0.00  0.00    +0.156 C 
BRANCH   6   7
ATOM      7  N   ASP A   1      32.767  59.744  17.720  0.00  0.00    -0.238 NA
ATOM      8  H   ASP A   1      33.763  59.864  17.994  0.00  0.00    +0.142 HD
ENDBRANCH   6   7
BRANCH   6   9
ATOM      9  CB  ASP A   1      31.102  61.501  17.894  0.00  0.00    +0.140 C 
BRANCH   9  10
ATOM     10  CG  ASP A   1      29.994  62.265  17.169  0.00  0.00    +0.367 C 
ATOM     11  OD2 ASP A   1      28.954  62.422  17.797  0.00  0.00    -0.246 OA
ATOM     12  OD1 ASP A   1      30.122  62.697  15.998  0.00  0.00    -0.246 OA
ENDBRANCH   9  10
ENDBRANCH   6   9
ENDBRANCH   2   6
ENDBRANCH   1   4
BRANCH   1  13
ATOM     13  C   ASP A   2      34.750  64.448  16.730  0.00  0.00    +0.241 C 
ATOM     14  O   ASP A   2      34.231  64.953  17.699  0.00  0.00    -0.273 OA
ATOM     15  N   PHE A   3      36.074  64.417  16.531  0.00  0.00    -0.298 N 
ATOM     16  H   PHE A   3      36.424  63.956  15.667  0.00  0.00    +0.150 HD
BRANCH  15  17
ATOM     17  CA  PHE A   3      37.051  64.982  17.437  0.00  0.00    +0.141 C 
BRANCH  17  18
ATOM     18  C   PHE A   3      36.766  64.565  18.896  0.00  0.00    +0.227 C 
ATOM     19  O   PHE A   3      36.957  65.345  19.853  0.00  0.00    -0.286 OA
ENDBRANCH  17  18
BRANCH  17  20
ATOM     20  CB  PHE A   3      37.095  66.525  17.240  0.00  0.00    +0.054 C 
BRANCH  20  21
ATOM     21  CG  PHE A   3      37.758  66.933  15.961  0.00  0.00    -0.020 A 
ATOM     22  CD2 PHE A   3      39.148  66.865  15.814  0.00  0.00    -0.004 A 
ATOM     23  CE2 PHE A   3      39.706  67.248  14.565  0.00  0.00    -0.000 A 
ATOM     24  CZ  PHE A   3      38.862  67.671  13.497  0.00  0.00    -0.000 A 
ATOM     25  CE1 PHE A   3      37.524  67.708  13.682  0.00  0.00    -0.000 A 
ATOM     26  CD1 PHE A   3      36.985  67.355  14.879  0.00  0.00    -0.004 A 
ENDBRANCH  20  21
ENDBRANCH  17  20
ENDBRANCH  15  17
ENDBRANCH   1  13
BRANCH   1  27
ATOM     27  CB  ASP A   2      33.196  64.962  14.796  0.00  0.00    +0.143 C 
BRANCH  27  28
ATOM     28  CG  ASP A   2      32.593  64.447  13.489  0.00  0.00    +0.367 C 
ATOM     29  OD2 ASP A   2      32.627  63.228  13.218  0.00  0.00    -0.246 OA
ATOM     30  OD1 ASP A   2      32.144  65.277  12.661  0.00  0.00    -0.246 OA
ENDBRANCH  27  28
ENDBRANCH   1  27
TORSDOF 12
REMARK  Name = ../refined-set-2016/2f7o/2f7o_pocket.pdb
REMARK  137 active torsions:
REMARK  status: ('A' for Active; 'I' for Inactive)
REMARK    1  A    between atoms: _1  and  _3
REMARK    2  A    between atoms: _14  and  _17
REMARK    3  A    between atoms: _17  and  _18
REMARK    4  A    between atoms: _25  and  _26
REMARK    5  A    between atoms: _33  and  _34
REMARK    6  A    between atoms: _39  and  _41
REMARK    7  A    between atoms: _41  and  _42
REMARK    8  A    between atoms: _44  and  _46
REMARK    9  A    between atoms: _46  and  _47
REMARK   10  A    between atoms: _46  and  _49
REMARK   11  A    between atoms: _49  and  _50
REMARK   12  A    between atoms: _60  and  _62
REMARK   13  A    between atoms: _62  and  _63
REMARK   14  A    between atoms: _62  and  _65
REMARK   15  A    between atoms: _65  and  _66
REMARK   16  A    between atoms: _69  and  _71
REMARK   17  A    between atoms: _71  and  _72
REMARK   18  A    between atoms: _71  and  _74
REMARK   19  A    between atoms: _74  and  _75
REMARK   20  A    between atoms: _80  and  _81
REMARK   21  A    between atoms: _83  and  _85
REMARK   22  A    between atoms: _85  and  _86
REMARK   23  A    between atoms: _85  and  _88
REMARK   24  A    between atoms: _88  and  _89
REMARK   25  A    between atoms: _89  and  _90
REMARK   26  A    between atoms: _93  and  _95
REMARK   27  A    between atoms: _95  and  _96
REMARK   28  A    between atoms: _95  and  _98
REMARK   29  A    between atoms: _98  and  _99
REMARK   30  A    between atoms: _99  and  _100
REMARK   31  A    between atoms: _102  and  _104
REMARK   32  A    between atoms: _104  and  _105
REMARK   33  A    between atoms: _104  and  _107
REMARK   34  A    between atoms: _107  and  _108
REMARK   35  A    between atoms: _111  and  _113
REMARK   36  A    between atoms: _113  and  _114
REMARK   37  A    between atoms: _113  and  _116
REMARK   38  A    between atoms: _116  and  _117
REMARK   39  A    between atoms: _117  and  _119
REMARK   40  A    between atoms: _119  and  ZN_376
REMARK   41  A    between atoms: _121  and  _122
REMARK   42  A    between atoms: _127  and  _129
REMARK   43  A    between atoms: _129  and  _130
REMARK   44  A    between atoms: _129  and  _132
REMARK   45  A    between atoms: _132  and  _133
REMARK   46  A    between atoms: _139  and  _141
REMARK   47  A    between atoms: _141  and  _142
REMARK   48  A    between atoms: _141  and  _144
REMARK   49  A    between atoms: _144  and  _145
REMARK   50  A    between atoms: _145  and  _146
REMARK   51  A    between atoms: _146  and  _147
REMARK   52  A    between atoms: _156  and  _158
REMARK   53  A    between atoms: _158  and  _159
REMARK   54  A    between atoms: _158  and  _161
REMARK   55  A    between atoms: _161  and  _162
REMARK   56  A    between atoms: _167  and  _168
REMARK   57  A    between atoms: _170  and  _172
REMARK   58  A    between atoms: _172  and  _173
REMARK   59  A    between atoms: _172  and  _175
REMARK   60  A    between atoms: _175  and  _176
REMARK   61  A    between atoms: _178  and  _180
REMARK   62  A    between atoms: _180  and  _181
REMARK   63  A    between atoms: _180  and  _183
REMARK   64  A    between atoms: _183  and  _184
REMARK   65  A    between atoms: _189  and  _190
REMARK   66  A    between atoms: _192  and  _194
REMARK   67  A    between atoms: _194  and  _195
REMARK   68  A    between atoms: _194  and  _197
REMARK   69  A    between atoms: _197  and  _198
REMARK   70  A    between atoms: _201  and  _203
REMARK   71  A    between atoms: _203  and  _204
REMARK   72  A    between atoms: _203  and  _206
REMARK   73  A    between atoms: _206  and  _207
REMARK   74  A    between atoms: _210  and  _212
REMARK   75  A    between atoms: _212  and  _213
REMARK   76  A    between atoms: _212  and  _215
REMARK   77  A    between atoms: _215  and  _216
REMARK   78  A    between atoms: _222  and  _224
REMARK   79  A    between atoms: _224  and  _225
REMARK   80  A    between atoms: _224  and  _227
REMARK   81  A    between atoms: _227  and  _228
REMARK   82  A    between atoms: _233  and  _234
REMARK   83  A    between atoms: _236  and  _238
REMARK   84  A    between atoms: _238  and  _239
REMARK   85  A    between atoms: _238  and  _241
REMARK   86  A    between atoms: _241  and  _242
REMARK   87  A    between atoms: _245  and  _247
REMARK   88  A    between atoms: _247  and  _248
REMARK   89  A    between atoms: _247  and  _250
REMARK   90  A    between atoms: _250  and  _251
REMARK   91  A    between atoms: _261  and  _263
REMARK   92  A    between atoms: _263  and  _264
REMARK   93  A    between atoms: _263  and  _266
REMARK   94  A    between atoms: _266  and  _267
REMARK   95  A    between atoms: _272  and  _274
REMARK   96  A    between atoms: _274  and  _275
REMARK   97  A    between atoms: _274  and  _277
REMARK   98  A    between atoms: _277  and  _278
REMARK   99  A    between atoms: _282  and  ZN_376
REMARK  100  A    between atoms: _283  and  _285
REMARK  101  A    between atoms: _285  and  _286
REMARK  102  A    between atoms: _285  and  _288
REMARK  103  A    between atoms: _288  and  _289
REMARK  104  A    between atoms: _292  and  _294
REMARK  105  A    between atoms: _294  and  _295
REMARK  106  A    between atoms: _297  and  _299
REMARK  107  A    between atoms: _299  and  _300
REMARK  108  A    between atoms: _299  and  _302
REMARK  109  A    between atoms: _302  and  _303
REMARK  110  A    between atoms: _306  and  _308
REMARK  111  A    between atoms: _308  and  _309
REMARK  112  A    between atoms: _308  and  _311
REMARK  113  A    between atoms: _311  and  _312
REMARK  114  A    between atoms: _315  and  _317
REMARK  115  A    between atoms: _317  and  _318
REMARK  116  A    between atoms: _321  and  _323
REMARK  117  A    between atoms: _323  and  _324
REMARK  118  A    between atoms: _323  and  _326
REMARK  119  A    between atoms: _326  and  _327
REMARK  120  A    between atoms: _332  and  _333
REMARK  121  A    between atoms: _335  and  _337
REMARK  122  A    between atoms: _337  and  _338
REMARK  123  A    between atoms: _337  and  _340
REMARK  124  A    between atoms: _340  and  _341
REMARK  125  A    between atoms: _341  and  _342
REMARK  126  A    between atoms: _345  and  _347
REMARK  127  A    between atoms: _347  and  _348
REMARK  128  A    between atoms: _347  and  _350
REMARK  129  A    between atoms: _350  and  _351
REMARK  130  A    between atoms: _351  and  _352
REMARK  131  A    between atoms: _352  and  _353
REMARK  132  A    between atoms: _362  and  _364
REMARK  133  A    between atoms: _364  and  _365
REMARK  134  A    between atoms: _367  and  _369
REMARK  135  A    between atoms: _369  and  _370
REMARK  136  A    between atoms: _369  and  _372
REMARK  137  A    between atoms: _372  and  _373
REMARK                            x       y       z     vdW  Elec       q    Type
REMARK                         _______ _______ _______ _____ _____    ______ ____
ROOT
ATOM      1  CG  TYR A   1      25.015  59.623   0.900  0.00  0.00    -0.020 A 
ATOM      2  CD2 TYR A   1      24.545  58.542   1.654  0.00  0.00    -0.001 A 
ATOM      3  CE2 TYR A   1      24.415  58.627   3.044  0.00  0.00    +0.036 A 
ATOM      4  CZ  TYR A   1      24.737  59.835   3.737  0.00  0.00    +0.134 A 
ATOM      5  CE1 TYR A   1      25.193  60.954   2.974  0.00  0.00    +0.036 A 
ATOM      6  CD1 TYR A   1      25.320  60.822   1.570  0.00  0.00    -0.001 A 
ENDROOT
BRANCH   4   7
ATOM      7  OH  TYR A   1      24.736  59.962   5.093  0.00  0.00    -0.506 OA
ATOM      8  HH  TYR A   1      24.401  59.125   5.501  0.00  0.00    +0.292 HD
ENDBRANCH   4   7
BRANCH   1   9
ATOM      9  CB  TYR A   1      25.290  59.485  -0.547  0.00  0.00    +0.051 C 
BRANCH   9  10
ATOM     10  CA  TYR A   1      24.036  59.234  -1.418  0.00  0.00    +0.137 C 
BRANCH  10  11
ATOM     11  N   TYR A   1      24.448  59.317  -2.788  0.00  0.00    -0.239 NA
ATOM     12  H   TYR A   1      25.409  59.660  -2.990  0.00  0.00    +0.142 HD
ENDBRANCH  10  11
BRANCH  10  13
ATOM     13  C   TYR A   1      22.894  60.193  -0.985  0.00  0.00    +0.224 C 
ATOM     14  O   TYR A   1      22.890  61.323  -1.447  0.00  0.00    -0.287 OA
ENDBRANCH  10  13
ENDBRANCH   9  10
ENDBRANCH   1   9
TORSDOF 5
REMARK  Name = ../refined-set-2016/2f7o/2f7o_pocket.pdb
REMARK  137 active torsions:
REMARK  status: ('A' for Active; 'I' for Inactive)
REMARK    1  A    between atoms: _1  and  _3
REMARK    2  A    between atoms: _14  and  _17
REMARK    3  A    between atoms: _17  and  _18
REMARK    4  A    between atoms: _25  and  _26
REMARK    5  A    between atoms: _33  and  _34
REMARK    6  A    between atoms: _39  and  _41
REMARK    7  A    between atoms: _41  and  _42
REMARK    8  A    between atoms: _44  and  _46
REMARK    9  A    between atoms: _46  and  _47
REMARK   10  A    between atoms: _46  and  _49
REMARK   11  A    between atoms: _49  and  _50
REMARK   12  A    between atoms: _60  and  _62
REMARK   13  A    between atoms: _62  and  _63
REMARK   14  A    between atoms: _62  and  _65
REMARK   15  A    between atoms: _65  and  _66
REMARK   16  A    between atoms: _69  and  _71
REMARK   17  A    between atoms: _71  and  _72
REMARK   18  A    between atoms: _71  and  _74
REMARK   19  A    between atoms: _74  and  _75
REMARK   20  A    between atoms: _80  and  _81
REMARK   21  A    between atoms: _83  and  _85
REMARK   22  A    between atoms: _85  and  _86
REMARK   23  A    between atoms: _85  and  _88
REMARK   24  A    between atoms: _88  and  _89
REMARK   25  A    between atoms: _89  and  _90
REMARK   26  A    between atoms: _93  and  _95
REMARK   27  A    between atoms: _95  and  _96
REMARK   28  A    between atoms: _95  and  _98
REMARK   29  A    between atoms: _98  and  _99
REMARK   30  A    between atoms: _99  and  _100
REMARK   31  A    between atoms: _102  and  _104
REMARK   32  A    between atoms: _104  and  _105
REMARK   33  A    between atoms: _104  and  _107
REMARK   34  A    between atoms: _107  and  _108
REMARK   35  A    between atoms: _111  and  _113
REMARK   36  A    between atoms: _113  and  _114
REMARK   37  A    between atoms: _113  and  _116
REMARK   38  A    between atoms: _116  and  _117
REMARK   39  A    between atoms: _117  and  _119
REMARK   40  A    between atoms: _119  and  ZN_376
REMARK   41  A    between atoms: _121  and  _122
REMARK   42  A    between atoms: _127  and  _129
REMARK   43  A    between atoms: _129  and  _130
REMARK   44  A    between atoms: _129  and  _132
REMARK   45  A    between atoms: _132  and  _133
REMARK   46  A    between atoms: _139  and  _141
REMARK   47  A    between atoms: _141  and  _142
REMARK   48  A    between atoms: _141  and  _144
REMARK   49  A    between atoms: _144  and  _145
REMARK   50  A    between atoms: _145  and  _146
REMARK   51  A    between atoms: _146  and  _147
REMARK   52  A    between atoms: _156  and  _158
REMARK   53  A    between atoms: _158  and  _159
REMARK   54  A    between atoms: _158  and  _161
REMARK   55  A    between atoms: _161  and  _162
REMARK   56  A    between atoms: _167  and  _168
REMARK   57  A    between atoms: _170  and  _172
REMARK   58  A    between atoms: _172  and  _173
REMARK   59  A    between atoms: _172  and  _175
REMARK   60  A    between atoms: _175  and  _176
REMARK   61  A    between atoms: _178  and  _180
REMARK   62  A    between atoms: _180  and  _181
REMARK   63  A    between atoms: _180  and  _183
REMARK   64  A    between atoms: _183  and  _184
REMARK   65  A    between atoms: _189  and  _190
REMARK   66  A    between atoms: _192  and  _194
REMARK   67  A    between atoms: _194  and  _195
REMARK   68  A    between atoms: _194  and  _197
REMARK   69  A    between atoms: _197  and  _198
REMARK   70  A    between atoms: _201  and  _203
REMARK   71  A    between atoms: _203  and  _204
REMARK   72  A    between atoms: _203  and  _206
REMARK   73  A    between atoms: _206  and  _207
REMARK   74  A    between atoms: _210  and  _212
REMARK   75  A    between atoms: _212  and  _213
REMARK   76  A    between atoms: _212  and  _215
REMARK   77  A    between atoms: _215  and  _216
REMARK   78  A    between atoms: _222  and  _224
REMARK   79  A    between atoms: _224  and  _225
REMARK   80  A    between atoms: _224  and  _227
REMARK   81  A    between atoms: _227  and  _228
REMARK   82  A    between atoms: _233  and  _234
REMARK   83  A    between atoms: _236  and  _238
REMARK   84  A    between atoms: _238  and  _239
REMARK   85  A    between atoms: _238  and  _241
REMARK   86  A    between atoms: _241  and  _242
REMARK   87  A    between atoms: _245  and  _247
REMARK   88  A    between atoms: _247  and  _248
REMARK   89  A    between atoms: _247  and  _250
REMARK   90  A    between atoms: _250  and  _251
REMARK   91  A    between atoms: _261  and  _263
REMARK   92  A    between atoms: _263  and  _264
REMARK   93  A    between atoms: _263  and  _266
REMARK   94  A    between atoms: _266  and  _267
REMARK   95  A    between atoms: _272  and  _274
REMARK   96  A    between atoms: _274  and  _275
REMARK   97  A    between atoms: _274  and  _277
REMARK   98  A    between atoms: _277  and  _278
REMARK   99  A    between atoms: _282  and  ZN_376
REMARK  100  A    between atoms: _283  and  _285
REMARK  101  A    between atoms: _285  and  _286
REMARK  102  A    between atoms: _285  and  _288
REMARK  103  A    between atoms: _288  and  _289
REMARK  104  A    between atoms: _292  and  _294
REMARK  105  A    between atoms: _294  and  _295
REMARK  106  A    between atoms: _297  and  _299
REMARK  107  A    between atoms: _299  and  _300
REMARK  108  A    between atoms: _299  and  _302
REMARK  109  A    between atoms: _302  and  _303
REMARK  110  A    between atoms: _306  and  _308
REMARK  111  A    between atoms: _308  and  _309
REMARK  112  A    between atoms: _308  and  _311
REMARK  113  A    between atoms: _311  and  _312
REMARK  114  A    between atoms: _315  and  _317
REMARK  115  A    between atoms: _317  and  _318
REMARK  116  A    between atoms: _321  and  _323
REMARK  117  A    between atoms: _323  and  _324
REMARK  118  A    between atoms: _323  and  _326
REMARK  119  A    between atoms: _326  and  _327
REMARK  120  A    between atoms: _332  and  _333
REMARK  121  A    between atoms: _335  and  _337
REMARK  122  A    between atoms: _337  and  _338
REMARK  123  A    between atoms: _337  and  _340
REMARK  124  A    between atoms: _340  and  _341
REMARK  125  A    between atoms: _341  and  _342
REMARK  126  A    between atoms: _345  and  _347
REMARK  127  A    between atoms: _347  and  _348
REMARK  128  A    between atoms: _347  and  _350
REMARK  129  A    between atoms: _350  and  _351
REMARK  130  A    between atoms: _351  and  _352
REMARK  131  A    between atoms: _352  and  _353
REMARK  132  A    between atoms: _362  and  _364
REMARK  133  A    between atoms: _364  and  _365
REMARK  134  A    between atoms: _367  and  _369
REMARK  135  A    between atoms: _369  and  _370
REMARK  136  A    between atoms: _369  and  _372
REMARK  137  A    between atoms: _372  and  _373
REMARK                            x       y       z     vdW  Elec       q    Type
REMARK                         _______ _______ _______ _____ _____    ______ ____
ROOT
ATOM      1  CA  ASP A   1      20.924  60.680   4.289  0.00  0.00    +0.144 C 
ENDROOT
BRANCH   1   2
ATOM      2  N   ASP A   1      20.964  61.026   2.847  0.00  0.00    -0.239 NA
ATOM      3  H   ASP A   1      21.038  62.031   2.588  0.00  0.00    +0.142 HD
ENDBRANCH   1   2
BRANCH   1   4
ATOM      4  C   ASP A   1      19.513  60.742   4.827  0.00  0.00    +0.225 C 
ATOM      5  O   ASP A   1      19.214  60.080   5.833  0.00  0.00    -0.287 OA
ENDBRANCH   1   4
BRANCH   1   6
ATOM      6  CB  ASP A   1      21.875  61.563   5.119  0.00  0.00    +0.139 C 
BRANCH   6   7
ATOM      7  CG  ASP A   1      21.568  63.096   5.040  0.00  0.00    +0.367 C 
ATOM      8  OD2 ASP A   1      22.031  63.799   5.998  0.00  0.00    -0.246 OA
ATOM      9  OD1 ASP A   1      20.956  63.548   4.050  0.00  0.00    -0.246 OA
ENDBRANCH   6   7
ENDBRANCH   1   6
TORSDOF 4
REMARK  Name = ../refined-set-2016/2f7o/2f7o_pocket.pdb
REMARK  137 active torsions:
REMARK  status: ('A' for Active; 'I' for Inactive)
REMARK    1  A    between atoms: _1  and  _3
REMARK    2  A    between atoms: _14  and  _17
REMARK    3  A    between atoms: _17  and  _18
REMARK    4  A    between atoms: _25  and  _26
REMARK    5  A    between atoms: _33  and  _34
REMARK    6  A    between atoms: _39  and  _41
REMARK    7  A    between atoms: _41  and  _42
REMARK    8  A    between atoms: _44  and  _46
REMARK    9  A    between atoms: _46  and  _47
REMARK   10  A    between atoms: _46  and  _49
REMARK   11  A    between atoms: _49  and  _50
REMARK   12  A    between atoms: _60  and  _62
REMARK   13  A    between atoms: _62  and  _63
REMARK   14  A    between atoms: _62  and  _65
REMARK   15  A    between atoms: _65  and  _66
REMARK   16  A    between atoms: _69  and  _71
REMARK   17  A    between atoms: _71  and  _72
REMARK   18  A    between atoms: _71  and  _74
REMARK   19  A    between atoms: _74  and  _75
REMARK   20  A    between atoms: _80  and  _81
REMARK   21  A    between atoms: _83  and  _85
REMARK   22  A    between atoms: _85  and  _86
REMARK   23  A    between atoms: _85  and  _88
REMARK   24  A    between atoms: _88  and  _89
REMARK   25  A    between atoms: _89  and  _90
REMARK   26  A    between atoms: _93  and  _95
REMARK   27  A    between atoms: _95  and  _96
REMARK   28  A    between atoms: _95  and  _98
REMARK   29  A    between atoms: _98  and  _99
REMARK   30  A    between atoms: _99  and  _100
REMARK   31  A    between atoms: _102  and  _104
REMARK   32  A    between atoms: _104  and  _105
REMARK   33  A    between atoms: _104  and  _107
REMARK   34  A    between atoms: _107  and  _108
REMARK   35  A    between atoms: _111  and  _113
REMARK   36  A    between atoms: _113  and  _114
REMARK   37  A    between atoms: _113  and  _116
REMARK   38  A    between atoms: _116  and  _117
REMARK   39  A    between atoms: _117  and  _119
REMARK   40  A    between atoms: _119  and  ZN_376
REMARK   41  A    between atoms: _121  and  _122
REMARK   42  A    between atoms: _127  and  _129
REMARK   43  A    between atoms: _129  and  _130
REMARK   44  A    between atoms: _129  and  _132
REMARK   45  A    between atoms: _132  and  _133
REMARK   46  A    between atoms: _139  and  _141
REMARK   47  A    between atoms: _141  and  _142
REMARK   48  A    between atoms: _141  and  _144
REMARK   49  A    between atoms: _144  and  _145
REMARK   50  A    between atoms: _145  and  _146
REMARK   51  A    between atoms: _146  and  _147
REMARK   52  A    between atoms: _156  and  _158
REMARK   53  A    between atoms: _158  and  _159
REMARK   54  A    between atoms: _158  and  _161
REMARK   55  A    between atoms: _161  and  _162
REMARK   56  A    between atoms: _167  and  _168
REMARK   57  A    between atoms: _170  and  _172
REMARK   58  A    between atoms: _172  and  _173
REMARK   59  A    between atoms: _172  and  _175
REMARK   60  A    between atoms: _175  and  _176
REMARK   61  A    between atoms: _178  and  _180
REMARK   62  A    between atoms: _180  and  _181
REMARK   63  A    between atoms: _180  and  _183
REMARK   64  A    between atoms: _183  and  _184
REMARK   65  A    between atoms: _189  and  _190
REMARK   66  A    between atoms: _192  and  _194
REMARK   67  A    between atoms: _194  and  _195
REMARK   68  A    between atoms: _194  and  _197
REMARK   69  A    between atoms: _197  and  _198
REMARK   70  A    between atoms: _201  and  _203
REMARK   71  A    between atoms: _203  and  _204
REMARK   72  A    between atoms: _203  and  _206
REMARK   73  A    between atoms: _206  and  _207
REMARK   74  A    between atoms: _210  and  _212
REMARK   75  A    between atoms: _212  and  _213
REMARK   76  A    between atoms: _212  and  _215
REMARK   77  A    between atoms: _215  and  _216
REMARK   78  A    between atoms: _222  and  _224
REMARK   79  A    between atoms: _224  and  _225
REMARK   80  A    between atoms: _224  and  _227
REMARK   81  A    between atoms: _227  and  _228
REMARK   82  A    between atoms: _233  and  _234
REMARK   83  A    between atoms: _236  and  _238
REMARK   84  A    between atoms: _238  and  _239
REMARK   85  A    between atoms: _238  and  _241
REMARK   86  A    between atoms: _241  and  _242
REMARK   87  A    between atoms: _245  and  _247
REMARK   88  A    between atoms: _247  and  _248
REMARK   89  A    between atoms: _247  and  _250
REMARK   90  A    between atoms: _250  and  _251
REMARK   91  A    between atoms: _261  and  _263
REMARK   92  A    between atoms: _263  and  _264
REMARK   93  A    between atoms: _263  and  _266
REMARK   94  A    between atoms: _266  and  _267
REMARK   95  A    between atoms: _272  and  _274
REMARK   96  A    between atoms: _274  and  _275
REMARK   97  A    between atoms: _274  and  _277
REMARK   98  A    between atoms: _277  and  _278
REMARK   99  A    between atoms: _282  and  ZN_376
REMARK  100  A    between atoms: _283  and  _285
REMARK  101  A    between atoms: _285  and  _286
REMARK  102  A    between atoms: _285  and  _288
REMARK  103  A    between atoms: _288  and  _289
REMARK  104  A    between atoms: _292  and  _294
REMARK  105  A    between atoms: _294  and  _295
REMARK  106  A    between atoms: _297  and  _299
REMARK  107  A    between atoms: _299  and  _300
REMARK  108  A    between atoms: _299  and  _302
REMARK  109  A    between atoms: _302  and  _303
REMARK  110  A    between atoms: _306  and  _308
REMARK  111  A    between atoms: _308  and  _309
REMARK  112  A    between atoms: _308  and  _311
REMARK  113  A    between atoms: _311  and  _312
REMARK  114  A    between atoms: _315  and  _317
REMARK  115  A    between atoms: _317  and  _318
REMARK  116  A    between atoms: _321  and  _323
REMARK  117  A    between atoms: _323  and  _324
REMARK  118  A    between atoms: _323  and  _326
REMARK  119  A    between atoms: _326  and  _327
REMARK  120  A    between atoms: _332  and  _333
REMARK  121  A    between atoms: _335  and  _337
REMARK  122  A    between atoms: _337  and  _338
REMARK  123  A    between atoms: _337  and  _340
REMARK  124  A    between atoms: _340  and  _341
REMARK  125  A    between atoms: _341  and  _342
REMARK  126  A    between atoms: _345  and  _347
REMARK  127  A    between atoms: _347  and  _348
REMARK  128  A    between atoms: _347  and  _350
REMARK  129  A    between atoms: _350  and  _351
REMARK  130  A    between atoms: _351  and  _352
REMARK  131  A    between atoms: _352  and  _353
REMARK  132  A    between atoms: _362  and  _364
REMARK  133  A    between atoms: _364  and  _365
REMARK  134  A    between atoms: _367  and  _369
REMARK  135  A    between atoms: _369  and  _370
REMARK  136  A    between atoms: _369  and  _372
REMARK  137  A    between atoms: _372  and  _373
REMARK                            x       y       z     vdW  Elec       q    Type
REMARK                         _______ _______ _______ _____ _____    ______ ____
ROOT
ATOM      1  CG  TRP A   1      24.659  64.217   0.561  0.00  0.00    -0.002 A 
ATOM      2  CD2 TRP A   1      25.376  64.439   1.782  0.00  0.00    +0.013 A 
ATOM      3  CE2 TRP A   1      24.459  64.327   2.856  0.00  0.00    +0.056 A 
ATOM      4  CZ2 TRP A   1      24.831  64.480   4.199  0.00  0.00    +0.017 A 
ATOM      5  CH2 TRP A   1      26.175  64.744   4.475  0.00  0.00    +0.001 A 
ATOM      6  CZ3 TRP A   1      27.131  64.856   3.374  0.00  0.00    +0.000 A 
ATOM      7  NE1 TRP A   1      23.241  64.043   2.309  0.00  0.00    -0.352 N 
ATOM      8  HE1 TRP A   1      22.365  63.896   2.850  0.00  0.00    +0.166 HD
ATOM      9  CE3 TRP A   1      26.744  64.715   2.067  0.00  0.00    +0.001 A 
ATOM     10  CD1 TRP A   1      23.339  63.979   0.935  0.00  0.00    +0.068 A 
ENDROOT
BRANCH   1  11
ATOM     11  CB  TRP A   1      25.261  64.123  -0.835  0.00  0.00    +0.053 C 
BRANCH  11  12
ATOM     12  CA  TRP A   1      24.452  64.840  -1.918  0.00  0.00    +0.137 C 
BRANCH  12  13
ATOM     13  N   TRP A   1      23.176  64.129  -2.035  0.00  0.00    -0.239 NA
ATOM     14  H   TRP A   1      23.154  63.105  -1.853  0.00  0.00    +0.142 HD
ENDBRANCH  12  13
BRANCH  12  15
ATOM     15  C   TRP A   1      25.222  64.915  -3.238  0.00  0.00    +0.224 C 
ATOM     16  O   TRP A   1      26.351  64.452  -3.356  0.00  0.00    -0.287 OA
ENDBRANCH  12  15
ENDBRANCH  11  12
ENDBRANCH   1  11
TORSDOF 4
REMARK  Name = ../refined-set-2016/2f7o/2f7o_pocket.pdb
REMARK  137 active torsions:
REMARK  status: ('A' for Active; 'I' for Inactive)
REMARK    1  A    between atoms: _1  and  _3
REMARK    2  A    between atoms: _14  and  _17
REMARK    3  A    between atoms: _17  and  _18
REMARK    4  A    between atoms: _25  and  _26
REMARK    5  A    between atoms: _33  and  _34
REMARK    6  A    between atoms: _39  and  _41
REMARK    7  A    between atoms: _41  and  _42
REMARK    8  A    between atoms: _44  and  _46
REMARK    9  A    between atoms: _46  and  _47
REMARK   10  A    between atoms: _46  and  _49
REMARK   11  A    between atoms: _49  and  _50
REMARK   12  A    between atoms: _60  and  _62
REMARK   13  A    between atoms: _62  and  _63
REMARK   14  A    between atoms: _62  and  _65
REMARK   15  A    between atoms: _65  and  _66
REMARK   16  A    between atoms: _69  and  _71
REMARK   17  A    between atoms: _71  and  _72
REMARK   18  A    between atoms: _71  and  _74
REMARK   19  A    between atoms: _74  and  _75
REMARK   20  A    between atoms: _80  and  _81
REMARK   21  A    between atoms: _83  and  _85
REMARK   22  A    between atoms: _85  and  _86
REMARK   23  A    between atoms: _85  and  _88
REMARK   24  A    between atoms: _88  and  _89
REMARK   25  A    between atoms: _89  and  _90
REMARK   26  A    between atoms: _93  and  _95
REMARK   27  A    between atoms: _95  and  _96
REMARK   28  A    between atoms: _95  and  _98
REMARK   29  A    between atoms: _98  and  _99
REMARK   30  A    between atoms: _99  and  _100
REMARK   31  A    between atoms: _102  and  _104
REMARK   32  A    between atoms: _104  and  _105
REMARK   33  A    between atoms: _104  and  _107
REMARK   34  A    between atoms: _107  and  _108
REMARK   35  A    between atoms: _111  and  _113
REMARK   36  A    between atoms: _113  and  _114
REMARK   37  A    between atoms: _113  and  _116
REMARK   38  A    between atoms: _116  and  _117
REMARK   39  A    between atoms: _117  and  _119
REMARK   40  A    between atoms: _119  and  ZN_376
REMARK   41  A    between atoms: _121  and  _122
REMARK   42  A    between atoms: _127  and  _129
REMARK   43  A    between atoms: _129  and  _130
REMARK   44  A    between atoms: _129  and  _132
REMARK   45  A    between atoms: _132  and  _133
REMARK   46  A    between atoms: _139  and  _141
REMARK   47  A    between atoms: _141  and  _142
REMARK   48  A    between atoms: _141  and  _144
REMARK   49  A    between atoms: _144  and  _145
REMARK   50  A    between atoms: _145  and  _146
REMARK   51  A    between atoms: _146  and  _147
REMARK   52  A    between atoms: _156  and  _158
REMARK   53  A    between atoms: _158  and  _159
REMARK   54  A    between atoms: _158  and  _161
REMARK   55  A    between atoms: _161  and  _162
REMARK   56  A    between atoms: _167  and  _168
REMARK   57  A    between atoms: _170  and  _172
REMARK   58  A    between atoms: _172  and  _173
REMARK   59  A    between atoms: _172  and  _175
REMARK   60  A    between atoms: _175  and  _176
REMARK   61  A    between atoms: _178  and  _180
REMARK   62  A    between atoms: _180  and  _181
REMARK   63  A    between atoms: _180  and  _183
REMARK   64  A    between atoms: _183  and  _184
REMARK   65  A    between atoms: _189  and  _190
REMARK   66  A    between atoms: _192  and  _194
REMARK   67  A    between atoms: _194  and  _195
REMARK   68  A    between atoms: _194  and  _197
REMARK   69  A    between atoms: _197  and  _198
REMARK   70  A    between atoms: _201  and  _203
REMARK   71  A    between atoms: _203  and  _204
REMARK   72  A    between atoms: _203  and  _206
REMARK   73  A    between atoms: _206  and  _207
REMARK   74  A    between atoms: _210  and  _212
REMARK   75  A    between atoms: _212  and  _213
REMARK   76  A    between atoms: _212  and  _215
REMARK   77  A    between atoms: _215  and  _216
REMARK   78  A    between atoms: _222  and  _224
REMARK   79  A    between atoms: _224  and  _225
REMARK   80  A    between atoms: _224  and  _227
REMARK   81  A    between atoms: _227  and  _228
REMARK   82  A    between atoms: _233  and  _234
REMARK   83  A    between atoms: _236  and  _238
REMARK   84  A    between atoms: _238  and  _239
REMARK   85  A    between atoms: _238  and  _241
REMARK   86  A    between atoms: _241  and  _242
REMARK   87  A    between atoms: _245  and  _247
REMARK   88  A    between atoms: _247  and  _248
REMARK   89  A    between atoms: _247  and  _250
REMARK   90  A    between atoms: _250  and  _251
REMARK   91  A    between atoms: _261  and  _263
REMARK   92  A    between atoms: _263  and  _264
REMARK   93  A    between atoms: _263  and  _266
REMARK   94  A    between atoms: _266  and  _267
REMARK   95  A    between atoms: _272  and  _274
REMARK   96  A    between atoms: _274  and  _275
REMARK   97  A    between atoms: _274  and  _277
REMARK   98  A    between atoms: _277  and  _278
REMARK   99  A    between atoms: _282  and  ZN_376
REMARK  100  A    between atoms: _283  and  _285
REMARK  101  A    between atoms: _285  and  _286
REMARK  102  A    between atoms: _285  and  _288
REMARK  103  A    between atoms: _288  and  _289
REMARK  104  A    between atoms: _292  and  _294
REMARK  105  A    between atoms: _294  and  _295
REMARK  106  A    between atoms: _297  and  _299
REMARK  107  A    between atoms: _299  and  _300
REMARK  108  A    between atoms: _299  and  _302
REMARK  109  A    between atoms: _302  and  _303
REMARK  110  A    between atoms: _306  and  _308
REMARK  111  A    between atoms: _308  and  _309
REMARK  112  A    between atoms: _308  and  _311
REMARK  113  A    between atoms: _311  and  _312
REMARK  114  A    between atoms: _315  and  _317
REMARK  115  A    between atoms: _317  and  _318
REMARK  116  A    between atoms: _321  and  _323
REMARK  117  A    between atoms: _323  and  _324
REMARK  118  A    between atoms: _323  and  _326
REMARK  119  A    between atoms: _326  and  _327
REMARK  120  A    between atoms: _332  and  _333
REMARK  121  A    between atoms: _335  and  _337
REMARK  122  A    between atoms: _337  and  _338
REMARK  123  A    between atoms: _337  and  _340
REMARK  124  A    between atoms: _340  and  _341
REMARK  125  A    between atoms: _341  and  _342
REMARK  126  A    between atoms: _345  and  _347
REMARK  127  A    between atoms: _347  and  _348
REMARK  128  A    between atoms: _347  and  _350
REMARK  129  A    between atoms: _350  and  _351
REMARK  130  A    between atoms: _351  and  _352
REMARK  131  A    between atoms: _352  and  _353
REMARK  132  A    between atoms: _362  and  _364
REMARK  133  A    between atoms: _364  and  _365
REMARK  134  A    between atoms: _367  and  _369
REMARK  135  A    between atoms: _369  and  _370
REMARK  136  A    between atoms: _369  and  _372
REMARK  137  A    between atoms: _372  and  _373
REMARK                            x       y       z     vdW  Elec       q    Type
REMARK                         _______ _______ _______ _____ _____    ______ ____
ROOT
ATOM      1  CA  THR A   1      34.772  68.006  -2.229  0.00  0.00    +0.160 C 
ENDROOT
BRANCH   1   2
ATOM      2  N   THR A   1      36.236  67.926  -2.222  0.00  0.00    -0.237 NA
ATOM      3  H   THR A   1      36.715  67.505  -1.401  0.00  0.00    +0.142 HD
ENDBRANCH   1   2
BRANCH   1   4
ATOM      4  CB  THR A   1      34.164  67.359  -0.919  0.00  0.00    +0.134 C 
ATOM      5  CG2 THR A   1      34.534  65.830  -0.853  0.00  0.00    +0.034 C 
BRANCH   4   6
ATOM      6  OG1 THR A   1      34.718  68.038   0.211  0.00  0.00    -0.383 OA
ATOM      7  HG1 THR A   1      34.349  67.647   1.043  0.00  0.00    +0.210 HD
ENDBRANCH   4   6
ENDBRANCH   1   4
BRANCH   1   8
ATOM      8  C   THR A   1      34.228  69.454  -2.226  0.00  0.00    +0.227 C 
ATOM      9  O   THR A   1      33.054  69.650  -2.539  0.00  0.00    -0.287 OA
ENDBRANCH   1   8
TORSDOF 4
REMARK  Name = ../refined-set-2016/2f7o/2f7o_pocket.pdb
REMARK  137 active torsions:
REMARK  status: ('A' for Active; 'I' for Inactive)
REMARK    1  A    between atoms: _1  and  _3
REMARK    2  A    between atoms: _14  and  _17
REMARK    3  A    between atoms: _17  and  _18
REMARK    4  A    between atoms: _25  and  _26
REMARK    5  A    between atoms: _33  and  _34
REMARK    6  A    between atoms: _39  and  _41
REMARK    7  A    between atoms: _41  and  _42
REMARK    8  A    between atoms: _44  and  _46
REMARK    9  A    between atoms: _46  and  _47
REMARK   10  A    between atoms: _46  and  _49
REMARK   11  A    between atoms: _49  and  _50
REMARK   12  A    between atoms: _60  and  _62
REMARK   13  A    between atoms: _62  and  _63
REMARK   14  A    between atoms: _62  and  _65
REMARK   15  A    between atoms: _65  and  _66
REMARK   16  A    between atoms: _69  and  _71
REMARK   17  A    between atoms: _71  and  _72
REMARK   18  A    between atoms: _71  and  _74
REMARK   19  A    between atoms: _74  and  _75
REMARK   20  A    between atoms: _80  and  _81
REMARK   21  A    between atoms: _83  and  _85
REMARK   22  A    between atoms: _85  and  _86
REMARK   23  A    between atoms: _85  and  _88
REMARK   24  A    between atoms: _88  and  _89
REMARK   25  A    between atoms: _89  and  _90
REMARK   26  A    between atoms: _93  and  _95
REMARK   27  A    between atoms: _95  and  _96
REMARK   28  A    between atoms: _95  and  _98
REMARK   29  A    between atoms: _98  and  _99
REMARK   30  A    between atoms: _99  and  _100
REMARK   31  A    between atoms: _102  and  _104
REMARK   32  A    between atoms: _104  and  _105
REMARK   33  A    between atoms: _104  and  _107
REMARK   34  A    between atoms: _107  and  _108
REMARK   35  A    between atoms: _111  and  _113
REMARK   36  A    between atoms: _113  and  _114
REMARK   37  A    between atoms: _113  and  _116
REMARK   38  A    between atoms: _116  and  _117
REMARK   39  A    between atoms: _117  and  _119
REMARK   40  A    between atoms: _119  and  ZN_376
REMARK   41  A    between atoms: _121  and  _122
REMARK   42  A    between atoms: _127  and  _129
REMARK   43  A    between atoms: _129  and  _130
REMARK   44  A    between atoms: _129  and  _132
REMARK   45  A    between atoms: _132  and  _133
REMARK   46  A    between atoms: _139  and  _141
REMARK   47  A    between atoms: _141  and  _142
REMARK   48  A    between atoms: _141  and  _144
REMARK   49  A    between atoms: _144  and  _145
REMARK   50  A    between atoms: _145  and  _146
REMARK   51  A    between atoms: _146  and  _147
REMARK   52  A    between atoms: _156  and  _158
REMARK   53  A    between atoms: _158  and  _159
REMARK   54  A    between atoms: _158  and  _161
REMARK   55  A    between atoms: _161  and  _162
REMARK   56  A    between atoms: _167  and  _168
REMARK   57  A    between atoms: _170  and  _172
REMARK   58  A    between atoms: _172  and  _173
REMARK   59  A    between atoms: _172  and  _175
REMARK   60  A    between atoms: _175  and  _176
REMARK   61  A    between atoms: _178  and  _180
REMARK   62  A    between atoms: _180  and  _181
REMARK   63  A    between atoms: _180  and  _183
REMARK   64  A    between atoms: _183  and  _184
REMARK   65  A    between atoms: _189  and  _190
REMARK   66  A    between atoms: _192  and  _194
REMARK   67  A    between atoms: _194  and  _195
REMARK   68  A    between atoms: _194  and  _197
REMARK   69  A    between atoms: _197  and  _198
REMARK   70  A    between atoms: _201  and  _203
REMARK   71  A    between atoms: _203  and  _204
REMARK   72  A    between atoms: _203  and  _206
REMARK   73  A    between atoms: _206  and  _207
REMARK   74  A    between atoms: _210  and  _212
REMARK   75  A    between atoms: _212  and  _213
REMARK   76  A    between atoms: _212  and  _215
REMARK   77  A    between atoms: _215  and  _216
REMARK   78  A    between atoms: _222  and  _224
REMARK   79  A    between atoms: _224  and  _225
REMARK   80  A    between atoms: _224  and  _227
REMARK   81  A    between atoms: _227  and  _228
REMARK   82  A    between atoms: _233  and  _234
REMARK   83  A    between atoms: _236  and  _238
REMARK   84  A    between atoms: _238  and  _239
REMARK   85  A    between atoms: _238  and  _241
REMARK   86  A    between atoms: _241  and  _242
REMARK   87  A    between atoms: _245  and  _247
REMARK   88  A    between atoms: _247  and  _248
REMARK   89  A    between atoms: _247  and  _250
REMARK   90  A    between atoms: _250  and  _251
REMARK   91  A    between atoms: _261  and  _263
REMARK   92  A    between atoms: _263  and  _264
REMARK   93  A    between atoms: _263  and  _266
REMARK   94  A    between atoms: _266  and  _267
REMARK   95  A    between atoms: _272  and  _274
REMARK   96  A    between atoms: _274  and  _275
REMARK   97  A    between atoms: _274  and  _277
REMARK   98  A    between atoms: _277  and  _278
REMARK   99  A    between atoms: _282  and  ZN_376
REMARK  100  A    between atoms: _283  and  _285
REMARK  101  A    between atoms: _285  and  _286
REMARK  102  A    between atoms: _285  and  _288
REMARK  103  A    between atoms: _288  and  _289
REMARK  104  A    between atoms: _292  and  _294
REMARK  105  A    between atoms: _294  and  _295
REMARK  106  A    between atoms: _297  and  _299
REMARK  107  A    between atoms: _299  and  _300
REMARK  108  A    between atoms: _299  and  _302
REMARK  109  A    between atoms: _302  and  _303
REMARK  110  A    between atoms: _306  and  _308
REMARK  111  A    between atoms: _308  and  _309
REMARK  112  A    between atoms: _308  and  _311
REMARK  113  A    between atoms: _311  and  _312
REMARK  114  A    between atoms: _315  and  _317
REMARK  115  A    between atoms: _317  and  _318
REMARK  116  A    between atoms: _321  and  _323
REMARK  117  A    between atoms: _323  and  _324
REMARK  118  A    between atoms: _323  and  _326
REMARK  119  A    between atoms: _326  and  _327
REMARK  120  A    between atoms: _332  and  _333
REMARK  121  A    between atoms: _335  and  _337
REMARK  122  A    between atoms: _337  and  _338
REMARK  123  A    between atoms: _337  and  _340
REMARK  124  A    between atoms: _340  and  _341
REMARK  125  A    between atoms: _341  and  _342
REMARK  126  A    between atoms: _345  and  _347
REMARK  127  A    between atoms: _347  and  _348
REMARK  128  A    between atoms: _347  and  _350
REMARK  129  A    between atoms: _350  and  _351
REMARK  130  A    between atoms: _351  and  _352
REMARK  131  A    between atoms: _352  and  _353
REMARK  132  A    between atoms: _362  and  _364
REMARK  133  A    between atoms: _364  and  _365
REMARK  134  A    between atoms: _367  and  _369
REMARK  135  A    between atoms: _369  and  _370
REMARK  136  A    between atoms: _369  and  _372
REMARK  137  A    between atoms: _372  and  _373
REMARK                            x       y       z     vdW  Elec       q    Type
REMARK                         _______ _______ _______ _____ _____    ______ ____
ROOT
ATOM      1  C   THR A   1      33.382  71.954   2.862  0.00  0.00    +0.241 C 
ATOM      2  O   THR A   1      32.906  71.826   3.967  0.00  0.00    -0.274 OA
ATOM      3  N   ALA A   2      34.503  72.674   2.689  0.00  0.00    -0.298 N 
ATOM      4  H   ALA A   2      34.929  72.775   1.746  0.00  0.00    +0.150 HD
ENDROOT
BRANCH   3   5
ATOM      5  CA  ALA A   2      35.107  73.307   3.846  0.00  0.00    +0.137 C 
ATOM      6  CB  ALA A   2      36.688  73.154   3.860  0.00  0.00    +0.030 C 
BRANCH   5   7
ATOM      7  C   ALA A   2      34.753  74.787   3.954  0.00  0.00    +0.227 C 
ATOM      8  O   ALA A   2      34.246  75.400   3.039  0.00  0.00    -0.286 OA
ENDBRANCH   5   7
ENDBRANCH   3   5
BRANCH   1   9
ATOM      9  CA  THR A   1      32.753  71.328   1.597  0.00  0.00    +0.172 C 
BRANCH   9  10
ATOM     10  N   THR A   1      33.670  71.199   0.487  0.00  0.00    -0.236 NA
ATOM     11  H   THR A   1      34.449  70.512   0.533  0.00  0.00    +0.142 HD
ENDBRANCH   9  10
BRANCH   9  12
ATOM     12  CB  THR A   1      32.096  69.946   1.937  0.00  0.00    +0.135 C 
ATOM     13  CG2 THR A   1      31.250  69.493   0.789  0.00  0.00    +0.034 C 
BRANCH  12  14
ATOM     14  OG1 THR A   1      33.153  69.000   2.222  0.00  0.00    -0.383 OA
ATOM     15  HG1 THR A   1      33.739  68.913   1.429  0.00  0.00    +0.210 HD
ENDBRANCH  12  14
ENDBRANCH   9  12
ENDBRANCH   1   9
TORSDOF 6
REMARK  Name = ../refined-set-2016/2f7o/2f7o_pocket.pdb
REMARK  137 active torsions:
REMARK  status: ('A' for Active; 'I' for Inactive)
REMARK    1  A    between atoms: _1  and  _3
REMARK    2  A    between atoms: _14  and  _17
REMARK    3  A    between atoms: _17  and  _18
REMARK    4  A    between atoms: _25  and  _26
REMARK    5  A    between atoms: _33  and  _34
REMARK    6  A    between atoms: _39  and  _41
REMARK    7  A    between atoms: _41  and  _42
REMARK    8  A    between atoms: _44  and  _46
REMARK    9  A    between atoms: _46  and  _47
REMARK   10  A    between atoms: _46  and  _49
REMARK   11  A    between atoms: _49  and  _50
REMARK   12  A    between atoms: _60  and  _62
REMARK   13  A    between atoms: _62  and  _63
REMARK   14  A    between atoms: _62  and  _65
REMARK   15  A    between atoms: _65  and  _66
REMARK   16  A    between atoms: _69  and  _71
REMARK   17  A    between atoms: _71  and  _72
REMARK   18  A    between atoms: _71  and  _74
REMARK   19  A    between atoms: _74  and  _75
REMARK   20  A    between atoms: _80  and  _81
REMARK   21  A    between atoms: _83  and  _85
REMARK   22  A    between atoms: _85  and  _86
REMARK   23  A    between atoms: _85  and  _88
REMARK   24  A    between atoms: _88  and  _89
REMARK   25  A    between atoms: _89  and  _90
REMARK   26  A    between atoms: _93  and  _95
REMARK   27  A    between atoms: _95  and  _96
REMARK   28  A    between atoms: _95  and  _98
REMARK   29  A    between atoms: _98  and  _99
REMARK   30  A    between atoms: _99  and  _100
REMARK   31  A    between atoms: _102  and  _104
REMARK   32  A    between atoms: _104  and  _105
REMARK   33  A    between atoms: _104  and  _107
REMARK   34  A    between atoms: _107  and  _108
REMARK   35  A    between atoms: _111  and  _113
REMARK   36  A    between atoms: _113  and  _114
REMARK   37  A    between atoms: _113  and  _116
REMARK   38  A    between atoms: _116  and  _117
REMARK   39  A    between atoms: _117  and  _119
REMARK   40  A    between atoms: _119  and  ZN_376
REMARK   41  A    between atoms: _121  and  _122
REMARK   42  A    between atoms: _127  and  _129
REMARK   43  A    between atoms: _129  and  _130
REMARK   44  A    between atoms: _129  and  _132
REMARK   45  A    between atoms: _132  and  _133
REMARK   46  A    between atoms: _139  and  _141
REMARK   47  A    between atoms: _141  and  _142
REMARK   48  A    between atoms: _141  and  _144
REMARK   49  A    between atoms: _144  and  _145
REMARK   50  A    between atoms: _145  and  _146
REMARK   51  A    between atoms: _146  and  _147
REMARK   52  A    between atoms: _156  and  _158
REMARK   53  A    between atoms: _158  and  _159
REMARK   54  A    between atoms: _158  and  _161
REMARK   55  A    between atoms: _161  and  _162
REMARK   56  A    between atoms: _167  and  _168
REMARK   57  A    between atoms: _170  and  _172
REMARK   58  A    between atoms: _172  and  _173
REMARK   59  A    between atoms: _172  and  _175
REMARK   60  A    between atoms: _175  and  _176
REMARK   61  A    between atoms: _178  and  _180
REMARK   62  A    between atoms: _180  and  _181
REMARK   63  A    between atoms: _180  and  _183
REMARK   64  A    between atoms: _183  and  _184
REMARK   65  A    between atoms: _189  and  _190
REMARK   66  A    between atoms: _192  and  _194
REMARK   67  A    between atoms: _194  and  _195
REMARK   68  A    between atoms: _194  and  _197
REMARK   69  A    between atoms: _197  and  _198
REMARK   70  A    between atoms: _201  and  _203
REMARK   71  A    between atoms: _203  and  _204
REMARK   72  A    between atoms: _203  and  _206
REMARK   73  A    between atoms: _206  and  _207
REMARK   74  A    between atoms: _210  and  _212
REMARK   75  A    between atoms: _212  and  _213
REMARK   76  A    between atoms: _212  and  _215
REMARK   77  A    between atoms: _215  and  _216
REMARK   78  A    between atoms: _222  and  _224
REMARK   79  A    between atoms: _224  and  _225
REMARK   80  A    between atoms: _224  and  _227
REMARK   81  A    between atoms: _227  and  _228
REMARK   82  A    between atoms: _233  and  _234
REMARK   83  A    between atoms: _236  and  _238
REMARK   84  A    between atoms: _238  and  _239
REMARK   85  A    between atoms: _238  and  _241
REMARK   86  A    between atoms: _241  and  _242
REMARK   87  A    between atoms: _245  and  _247
REMARK   88  A    between atoms: _247  and  _248
REMARK   89  A    between atoms: _247  and  _250
REMARK   90  A    between atoms: _250  and  _251
REMARK   91  A    between atoms: _261  and  _263
REMARK   92  A    between atoms: _263  and  _264
REMARK   93  A    between atoms: _263  and  _266
REMARK   94  A    between atoms: _266  and  _267
REMARK   95  A    between atoms: _272  and  _274
REMARK   96  A    between atoms: _274  and  _275
REMARK   97  A    between atoms: _274  and  _277
REMARK   98  A    between atoms: _277  and  _278
REMARK   99  A    between atoms: _282  and  ZN_376
REMARK  100  A    between atoms: _283  and  _285
REMARK  101  A    between atoms: _285  and  _286
REMARK  102  A    between atoms: _285  and  _288
REMARK  103  A    between atoms: _288  and  _289
REMARK  104  A    between atoms: _292  and  _294
REMARK  105  A    between atoms: _294  and  _295
REMARK  106  A    between atoms: _297  and  _299
REMARK  107  A    between atoms: _299  and  _300
REMARK  108  A    between atoms: _299  and  _302
REMARK  109  A    between atoms: _302  and  _303
REMARK  110  A    between atoms: _306  and  _308
REMARK  111  A    between atoms: _308  and  _309
REMARK  112  A    between atoms: _308  and  _311
REMARK  113  A    between atoms: _311  and  _312
REMARK  114  A    between atoms: _315  and  _317
REMARK  115  A    between atoms: _317  and  _318
REMARK  116  A    between atoms: _321  and  _323
REMARK  117  A    between atoms: _323  and  _324
REMARK  118  A    between atoms: _323  and  _326
REMARK  119  A    between atoms: _326  and  _327
REMARK  120  A    between atoms: _332  and  _333
REMARK  121  A    between atoms: _335  and  _337
REMARK  122  A    between atoms: _337  and  _338
REMARK  123  A    between atoms: _337  and  _340
REMARK  124  A    between atoms: _340  and  _341
REMARK  125  A    between atoms: _341  and  _342
REMARK  126  A    between atoms: _345  and  _347
REMARK  127  A    between atoms: _347  and  _348
REMARK  128  A    between atoms: _347  and  _350
REMARK  129  A    between atoms: _350  and  _351
REMARK  130  A    between atoms: _351  and  _352
REMARK  131  A    between atoms: _352  and  _353
REMARK  132  A    between atoms: _362  and  _364
REMARK  133  A    between atoms: _364  and  _365
REMARK  134  A    between atoms: _367  and  _369
REMARK  135  A    between atoms: _369  and  _370
REMARK  136  A    between atoms: _369  and  _372
REMARK  137  A    between atoms: _372  and  _373
REMARK                            x       y       z     vdW  Elec       q    Type
REMARK                         _______ _______ _______ _____ _____    ______ ____
ROOT
ATOM      1  CG  TYR A   1      27.505  68.859   2.387  0.00  0.00    -0.020 A 
ATOM      2  CD2 TYR A   1      27.396  70.005   3.214  0.00  0.00    -0.001 A 
ATOM      3  CE2 TYR A   1      28.348  70.258   4.263  0.00  0.00    +0.036 A 
ATOM      4  CZ  TYR A   1      29.403  69.353   4.437  0.00  0.00    +0.134 A 
ATOM      5  CE1 TYR A   1      29.532  68.207   3.615  0.00  0.00    +0.036 A 
ATOM      6  CD1 TYR A   1      28.583  67.958   2.594  0.00  0.00    -0.001 A 
ENDROOT
BRANCH   4   7
ATOM      7  OH  TYR A   1      30.279  69.520   5.462  0.00  0.00    -0.506 OA
ATOM      8  HH  TYR A   1      30.207  68.753   6.084  0.00  0.00    +0.292 HD
ENDBRANCH   4   7
BRANCH   1   9
ATOM      9  CB  TYR A   1      26.497  68.580   1.273  0.00  0.00    +0.051 C 
BRANCH   9  10
ATOM     10  CA  TYR A   1      26.783  69.247  -0.085  0.00  0.00    +0.137 C 
BRANCH  10  11
ATOM     11  N   TYR A   1      26.972  70.690   0.068  0.00  0.00    -0.239 NA
ATOM     12  H   TYR A   1      26.425  71.209   0.785  0.00  0.00    +0.142 HD
ENDBRANCH  10  11
BRANCH  10  13
ATOM     13  C   TYR A   1      25.610  68.910  -0.982  0.00  0.00    +0.224 C 
ATOM     14  O   TYR A   1      25.712  68.103  -1.898  0.00  0.00    -0.287 OA
ENDBRANCH  10  13
ENDBRANCH   9  10
ENDBRANCH   1   9
TORSDOF 5
REMARK  Name = ../refined-set-2016/2f7o/2f7o_pocket.pdb
REMARK  137 active torsions:
REMARK  status: ('A' for Active; 'I' for Inactive)
REMARK    1  A    between atoms: _1  and  _3
REMARK    2  A    between atoms: _14  and  _17
REMARK    3  A    between atoms: _17  and  _18
REMARK    4  A    between atoms: _25  and  _26
REMARK    5  A    between atoms: _33  and  _34
REMARK    6  A    between atoms: _39  and  _41
REMARK    7  A    between atoms: _41  and  _42
REMARK    8  A    between atoms: _44  and  _46
REMARK    9  A    between atoms: _46  and  _47
REMARK   10  A    between atoms: _46  and  _49
REMARK   11  A    between atoms: _49  and  _50
REMARK   12  A    between atoms: _60  and  _62
REMARK   13  A    between atoms: _62  and  _63
REMARK   14  A    between atoms: _62  and  _65
REMARK   15  A    between atoms: _65  and  _66
REMARK   16  A    between atoms: _69  and  _71
REMARK   17  A    between atoms: _71  and  _72
REMARK   18  A    between atoms: _71  and  _74
REMARK   19  A    between atoms: _74  and  _75
REMARK   20  A    between atoms: _80  and  _81
REMARK   21  A    between atoms: _83  and  _85
REMARK   22  A    between atoms: _85  and  _86
REMARK   23  A    between atoms: _85  and  _88
REMARK   24  A    between atoms: _88  and  _89
REMARK   25  A    between atoms: _89  and  _90
REMARK   26  A    between atoms: _93  and  _95
REMARK   27  A    between atoms: _95  and  _96
REMARK   28  A    between atoms: _95  and  _98
REMARK   29  A    between atoms: _98  and  _99
REMARK   30  A    between atoms: _99  and  _100
REMARK   31  A    between atoms: _102  and  _104
REMARK   32  A    between atoms: _104  and  _105
REMARK   33  A    between atoms: _104  and  _107
REMARK   34  A    between atoms: _107  and  _108
REMARK   35  A    between atoms: _111  and  _113
REMARK   36  A    between atoms: _113  and  _114
REMARK   37  A    between atoms: _113  and  _116
REMARK   38  A    between atoms: _116  and  _117
REMARK   39  A    between atoms: _117  and  _119
REMARK   40  A    between atoms: _119  and  ZN_376
REMARK   41  A    between atoms: _121  and  _122
REMARK   42  A    between atoms: _127  and  _129
REMARK   43  A    between atoms: _129  and  _130
REMARK   44  A    between atoms: _129  and  _132
REMARK   45  A    between atoms: _132  and  _133
REMARK   46  A    between atoms: _139  and  _141
REMARK   47  A    between atoms: _141  and  _142
REMARK   48  A    between atoms: _141  and  _144
REMARK   49  A    between atoms: _144  and  _145
REMARK   50  A    between atoms: _145  and  _146
REMARK   51  A    between atoms: _146  and  _147
REMARK   52  A    between atoms: _156  and  _158
REMARK   53  A    between atoms: _158  and  _159
REMARK   54  A    between atoms: _158  and  _161
REMARK   55  A    between atoms: _161  and  _162
REMARK   56  A    between atoms: _167  and  _168
REMARK   57  A    between atoms: _170  and  _172
REMARK   58  A    between atoms: _172  and  _173
REMARK   59  A    between atoms: _172  and  _175
REMARK   60  A    between atoms: _175  and  _176
REMARK   61  A    between atoms: _178  and  _180
REMARK   62  A    between atoms: _180  and  _181
REMARK   63  A    between atoms: _180  and  _183
REMARK   64  A    between atoms: _183  and  _184
REMARK   65  A    between atoms: _189  and  _190
REMARK   66  A    between atoms: _192  and  _194
REMARK   67  A    between atoms: _194  and  _195
REMARK   68  A    between atoms: _194  and  _197
REMARK   69  A    between atoms: _197  and  _198
REMARK   70  A    between atoms: _201  and  _203
REMARK   71  A    between atoms: _203  and  _204
REMARK   72  A    between atoms: _203  and  _206
REMARK   73  A    between atoms: _206  and  _207
REMARK   74  A    between atoms: _210  and  _212
REMARK   75  A    between atoms: _212  and  _213
REMARK   76  A    between atoms: _212  and  _215
REMARK   77  A    between atoms: _215  and  _216
REMARK   78  A    between atoms: _222  and  _224
REMARK   79  A    between atoms: _224  and  _225
REMARK   80  A    between atoms: _224  and  _227
REMARK   81  A    between atoms: _227  and  _228
REMARK   82  A    between atoms: _233  and  _234
REMARK   83  A    between atoms: _236  and  _238
REMARK   84  A    between atoms: _238  and  _239
REMARK   85  A    between atoms: _238  and  _241
REMARK   86  A    between atoms: _241  and  _242
REMARK   87  A    between atoms: _245  and  _247
REMARK   88  A    between atoms: _247  and  _248
REMARK   89  A    between atoms: _247  and  _250
REMARK   90  A    between atoms: _250  and  _251
REMARK   91  A    between atoms: _261  and  _263
REMARK   92  A    between atoms: _263  and  _264
REMARK   93  A    between atoms: _263  and  _266
REMARK   94  A    between atoms: _266  and  _267
REMARK   95  A    between atoms: _272  and  _274
REMARK   96  A    between atoms: _274  and  _275
REMARK   97  A    between atoms: _274  and  _277
REMARK   98  A    between atoms: _277  and  _278
REMARK   99  A    between atoms: _282  and  ZN_376
REMARK  100  A    between atoms: _283  and  _285
REMARK  101  A    between atoms: _285  and  _286
REMARK  102  A    between atoms: _285  and  _288
REMARK  103  A    between atoms: _288  and  _289
REMARK  104  A    between atoms: _292  and  _294
REMARK  105  A    between atoms: _294  and  _295
REMARK  106  A    between atoms: _297  and  _299
REMARK  107  A    between atoms: _299  and  _300
REMARK  108  A    between atoms: _299  and  _302
REMARK  109  A    between atoms: _302  and  _303
REMARK  110  A    between atoms: _306  and  _308
REMARK  111  A    between atoms: _308  and  _309
REMARK  112  A    between atoms: _308  and  _311
REMARK  113  A    between atoms: _311  and  _312
REMARK  114  A    between atoms: _315  and  _317
REMARK  115  A    between atoms: _317  and  _318
REMARK  116  A    between atoms: _321  and  _323
REMARK  117  A    between atoms: _323  and  _324
REMARK  118  A    between atoms: _323  and  _326
REMARK  119  A    between atoms: _326  and  _327
REMARK  120  A    between atoms: _332  and  _333
REMARK  121  A    between atoms: _335  and  _337
REMARK  122  A    between atoms: _337  and  _338
REMARK  123  A    between atoms: _337  and  _340
REMARK  124  A    between atoms: _340  and  _341
REMARK  125  A    between atoms: _341  and  _342
REMARK  126  A    between atoms: _345  and  _347
REMARK  127  A    between atoms: _347  and  _348
REMARK  128  A    between atoms: _347  and  _350
REMARK  129  A    between atoms: _350  and  _351
REMARK  130  A    between atoms: _351  and  _352
REMARK  131  A    between atoms: _352  and  _353
REMARK  132  A    between atoms: _362  and  _364
REMARK  133  A    between atoms: _364  and  _365
REMARK  134  A    between atoms: _367  and  _369
REMARK  135  A    between atoms: _369  and  _370
REMARK  136  A    between atoms: _369  and  _372
REMARK  137  A    between atoms: _372  and  _373
REMARK                            x       y       z     vdW  Elec       q    Type
REMARK                         _______ _______ _______ _____ _____    ______ ____
ROOT
ATOM      1  CA  ARG A   2      25.027  69.577   7.697  0.00  0.00    +0.149 C 
ENDROOT
BRANCH   1   4
ATOM      2  C   GLU A   1      23.018  70.863   7.874  0.00  0.00    +0.238 C 
ATOM      3  O   GLU A   1      22.476  69.981   8.546  0.00  0.00    -0.274 OA
ATOM      4  N   ARG A   2      24.255  70.745   7.419  0.00  0.00    -0.297 N 
ATOM      5  H   ARG A   2      24.670  71.512   6.852  0.00  0.00    +0.150 HD
BRANCH   2   6
ATOM      6  CA  GLU A   1      22.294  72.156   7.553  0.00  0.00    +0.145 C 
BRANCH   6   7
ATOM      7  N   GLU A   1      22.519  72.825   6.276  0.00  0.00    -0.238 NA
ATOM      8  H   GLU A   1      22.889  73.797   6.289  0.00  0.00    +0.142 HD
ENDBRANCH   6   7
BRANCH   6   9
ATOM      9  CB  GLU A   1      20.804  71.900   7.742  0.00  0.00    +0.038 C 
BRANCH   9  10
ATOM     10  CG  GLU A   1      19.980  73.083   7.355  0.00  0.00    +0.116 C 
BRANCH  10  11
ATOM     11  CD  GLU A   1      18.888  73.353   8.336  0.00  0.00    +0.365 C 
ATOM     12  OE2 GLU A   1      19.164  73.348   9.568  0.00  0.00    -0.246 OA
ATOM     13  OE1 GLU A   1      17.753  73.598   7.875  0.00  0.00    -0.246 OA
ENDBRANCH  10  11
ENDBRANCH   9  10
ENDBRANCH   6   9
ENDBRANCH   2   6
ENDBRANCH   1   4
BRANCH   1  14
ATOM     14  C   ARG A   2      26.179  69.953   8.598  0.00  0.00    +0.241 C 
ATOM     15  N   GLY A   3      26.225  71.211   9.052  0.00  0.00    -0.295 N 
ATOM     16  H   GLY A   3      25.505  71.898   8.749  0.00  0.00    +0.150 HD
ATOM     17  O   ARG A   2      27.061  69.125   8.832  0.00  0.00    -0.273 OA
BRANCH  15  18
ATOM     18  CA  GLY A   3      27.277  71.621   9.966  0.00  0.00    +0.176 C 
BRANCH  18  19
ATOM     19  C   GLY A   3      28.341  72.575   9.442  0.00  0.00    +0.243 C 
ATOM     20  O   GLY A   3      29.116  73.133  10.270  0.00  0.00    -0.273 OA
ATOM     21  N   LEU A   4      28.363  72.804   8.115  0.00  0.00    -0.298 N 
ATOM     22  H   LEU A   4      27.658  72.338   7.510  0.00  0.00    +0.150 HD
BRANCH  21  23
ATOM     23  CA  LEU A   4      29.353  73.692   7.501  0.00  0.00    +0.137 C 
BRANCH  23  24
ATOM     24  C   LEU A   4      29.085  75.130   7.936  0.00  0.00    +0.227 C 
ATOM     25  O   LEU A   4      30.026  75.914   8.109  0.00  0.00    -0.286 OA
ENDBRANCH  23  24
BRANCH  23  26
ATOM     26  CB  LEU A   4      29.361  73.589   5.972  0.00  0.00    +0.028 C 
BRANCH  26  27
ATOM     27  CG  LEU A   4      30.268  74.607   5.244  0.00  0.00    +0.002 C 
ATOM     28  CD2 LEU A   4      31.787  74.555   5.691  0.00  0.00    +0.000 C 
ATOM     29  CD1 LEU A   4      30.096  74.332   3.796  0.00  0.00    +0.000 C 
ENDBRANCH  26  27
ENDBRANCH  23  26
ENDBRANCH  21  23
ENDBRANCH  18  19
ENDBRANCH  15  18
ENDBRANCH   1  14
BRANCH   1  30
ATOM     30  CB  ARG A   2      25.515  68.938   6.379  0.00  0.00    +0.033 C 
BRANCH  30  31
ATOM     31  CG  ARG A   2      24.365  68.337   5.463  0.00  0.00    +0.045 C 
BRANCH  31  32
ATOM     32  CD  ARG A   2      23.479  67.328   6.268  0.00  0.00    +0.174 C 
BRANCH  32  33
ATOM     33  NE  ARG A   2      22.452  66.621   5.491  0.00  0.00    -0.265 N 
ATOM     34  HE  ARG A   2      22.656  65.642   5.207  0.00  0.00    +0.259 HD
ATOM     35  CZ  ARG A   2      21.277  67.136   5.121  0.00  0.00    +0.342 C 
ATOM     36  NH2 ARG A   2      20.980  68.390   5.392  0.00  0.00    -0.292 N 
ATOM     37 HH21 ARG A   2      21.663  68.988   5.898  0.00  0.00    +0.255 HD
ATOM     38 HH22 ARG A   2      20.062  68.782   5.100  0.00  0.00    +0.255 HD
ATOM     39  NH1 ARG A   2      20.315  66.335   4.657  0.00  0.00    -0.292 N 
ATOM     40 HH11 ARG A   2      20.481  65.311   4.584  0.00  0.00    +0.255 HD
ATOM     41 HH12 ARG A   2      19.399  66.735   4.369  0.00  0.00    +0.255 HD
ENDBRANCH  32  33
ENDBRANCH  31  32
ENDBRANCH  30  31
ENDBRANCH   1  30
TORSDOF 17
REMARK  Name = ../refined-set-2016/2f7o/2f7o_pocket.pdb
REMARK  137 active torsions:
REMARK  status: ('A' for Active; 'I' for Inactive)
REMARK    1  A    between atoms: _1  and  _3
REMARK    2  A    between atoms: _14  and  _17
REMARK    3  A    between atoms: _17  and  _18
REMARK    4  A    between atoms: _25  and  _26
REMARK    5  A    between atoms: _33  and  _34
REMARK    6  A    between atoms: _39  and  _41
REMARK    7  A    between atoms: _41  and  _42
REMARK    8  A    between atoms: _44  and  _46
REMARK    9  A    between atoms: _46  and  _47
REMARK   10  A    between atoms: _46  and  _49
REMARK   11  A    between atoms: _49  and  _50
REMARK   12  A    between atoms: _60  and  _62
REMARK   13  A    between atoms: _62  and  _63
REMARK   14  A    between atoms: _62  and  _65
REMARK   15  A    between atoms: _65  and  _66
REMARK   16  A    between atoms: _69  and  _71
REMARK   17  A    between atoms: _71  and  _72
REMARK   18  A    between atoms: _71  and  _74
REMARK   19  A    between atoms: _74  and  _75
REMARK   20  A    between atoms: _80  and  _81
REMARK   21  A    between atoms: _83  and  _85
REMARK   22  A    between atoms: _85  and  _86
REMARK   23  A    between atoms: _85  and  _88
REMARK   24  A    between atoms: _88  and  _89
REMARK   25  A    between atoms: _89  and  _90
REMARK   26  A    between atoms: _93  and  _95
REMARK   27  A    between atoms: _95  and  _96
REMARK   28  A    between atoms: _95  and  _98
REMARK   29  A    between atoms: _98  and  _99
REMARK   30  A    between atoms: _99  and  _100
REMARK   31  A    between atoms: _102  and  _104
REMARK   32  A    between atoms: _104  and  _105
REMARK   33  A    between atoms: _104  and  _107
REMARK   34  A    between atoms: _107  and  _108
REMARK   35  A    between atoms: _111  and  _113
REMARK   36  A    between atoms: _113  and  _114
REMARK   37  A    between atoms: _113  and  _116
REMARK   38  A    between atoms: _116  and  _117
REMARK   39  A    between atoms: _117  and  _119
REMARK   40  A    between atoms: _119  and  ZN_376
REMARK   41  A    between atoms: _121  and  _122
REMARK   42  A    between atoms: _127  and  _129
REMARK   43  A    between atoms: _129  and  _130
REMARK   44  A    between atoms: _129  and  _132
REMARK   45  A    between atoms: _132  and  _133
REMARK   46  A    between atoms: _139  and  _141
REMARK   47  A    between atoms: _141  and  _142
REMARK   48  A    between atoms: _141  and  _144
REMARK   49  A    between atoms: _144  and  _145
REMARK   50  A    between atoms: _145  and  _146
REMARK   51  A    between atoms: _146  and  _147
REMARK   52  A    between atoms: _156  and  _158
REMARK   53  A    between atoms: _158  and  _159
REMARK   54  A    between atoms: _158  and  _161
REMARK   55  A    between atoms: _161  and  _162
REMARK   56  A    between atoms: _167  and  _168
REMARK   57  A    between atoms: _170  and  _172
REMARK   58  A    between atoms: _172  and  _173
REMARK   59  A    between atoms: _172  and  _175
REMARK   60  A    between atoms: _175  and  _176
REMARK   61  A    between atoms: _178  and  _180
REMARK   62  A    between atoms: _180  and  _181
REMARK   63  A    between atoms: _180  and  _183
REMARK   64  A    between atoms: _183  and  _184
REMARK   65  A    between atoms: _189  and  _190
REMARK   66  A    between atoms: _192  and  _194
REMARK   67  A    between atoms: _194  and  _195
REMARK   68  A    between atoms: _194  and  _197
REMARK   69  A    between atoms: _197  and  _198
REMARK   70  A    between atoms: _201  and  _203
REMARK   71  A    between atoms: _203  and  _204
REMARK   72  A    between atoms: _203  and  _206
REMARK   73  A    between atoms: _206  and  _207
REMARK   74  A    between atoms: _210  and  _212
REMARK   75  A    between atoms: _212  and  _213
REMARK   76  A    between atoms: _212  and  _215
REMARK   77  A    between atoms: _215  and  _216
REMARK   78  A    between atoms: _222  and  _224
REMARK   79  A    between atoms: _224  and  _225
REMARK   80  A    between atoms: _224  and  _227
REMARK   81  A    between atoms: _227  and  _228
REMARK   82  A    between atoms: _233  and  _234
REMARK   83  A    between atoms: _236  and  _238
REMARK   84  A    between atoms: _238  and  _239
REMARK   85  A    between atoms: _238  and  _241
REMARK   86  A    between atoms: _241  and  _242
REMARK   87  A    between atoms: _245  and  _247
REMARK   88  A    between atoms: _247  and  _248
REMARK   89  A    between atoms: _247  and  _250
REMARK   90  A    between atoms: _250  and  _251
REMARK   91  A    between atoms: _261  and  _263
REMARK   92  A    between atoms: _263  and  _264
REMARK   93  A    between atoms: _263  and  _266
REMARK   94  A    between atoms: _266  and  _267
REMARK   95  A    between atoms: _272  and  _274
REMARK   96  A    between atoms: _274  and  _275
REMARK   97  A    between atoms: _274  and  _277
REMARK   98  A    between atoms: _277  and  _278
REMARK   99  A    between atoms: _282  and  ZN_376
REMARK  100  A    between atoms: _283  and  _285
REMARK  101  A    between atoms: _285  and  _286
REMARK  102  A    between atoms: _285  and  _288
REMARK  103  A    between atoms: _288  and  _289
REMARK  104  A    between atoms: _292  and  _294
REMARK  105  A    between atoms: _294  and  _295
REMARK  106  A    between atoms: _297  and  _299
REMARK  107  A    between atoms: _299  and  _300
REMARK  108  A    between atoms: _299  and  _302
REMARK  109  A    between atoms: _302  and  _303
REMARK  110  A    between atoms: _306  and  _308
REMARK  111  A    between atoms: _308  and  _309
REMARK  112  A    between atoms: _308  and  _311
REMARK  113  A    between atoms: _311  and  _312
REMARK  114  A    between atoms: _315  and  _317
REMARK  115  A    between atoms: _317  and  _318
REMARK  116  A    between atoms: _321  and  _323
REMARK  117  A    between atoms: _323  and  _324
REMARK  118  A    between atoms: _323  and  _326
REMARK  119  A    between atoms: _326  and  _327
REMARK  120  A    between atoms: _332  and  _333
REMARK  121  A    between atoms: _335  and  _337
REMARK  122  A    between atoms: _337  and  _338
REMARK  123  A    between atoms: _337  and  _340
REMARK  124  A    between atoms: _340  and  _341
REMARK  125  A    between atoms: _341  and  _342
REMARK  126  A    between atoms: _345  and  _347
REMARK  127  A    between atoms: _347  and  _348
REMARK  128  A    between atoms: _347  and  _350
REMARK  129  A    between atoms: _350  and  _351
REMARK  130  A    between atoms: _351  and  _352
REMARK  131  A    between atoms: _352  and  _353
REMARK  132  A    between atoms: _362  and  _364
REMARK  133  A    between atoms: _364  and  _365
REMARK  134  A    between atoms: _367  and  _369
REMARK  135  A    between atoms: _369  and  _370
REMARK  136  A    between atoms: _369  and  _372
REMARK  137  A    between atoms: _372  and  _373
REMARK                            x       y       z     vdW  Elec       q    Type
REMARK                         _______ _______ _______ _____ _____    ______ ____
ROOT
ATOM      1  O   HOH     1      29.179  65.446  15.796  0.00  0.00    +0.000 OA
ENDROOT
TORSDOF 0
REMARK  Name = ../refined-set-2016/2f7o/2f7o_pocket.pdb
REMARK  137 active torsions:
REMARK  status: ('A' for Active; 'I' for Inactive)
REMARK    1  A    between atoms: _1  and  _3
REMARK    2  A    between atoms: _14  and  _17
REMARK    3  A    between atoms: _17  and  _18
REMARK    4  A    between atoms: _25  and  _26
REMARK    5  A    between atoms: _33  and  _34
REMARK    6  A    between atoms: _39  and  _41
REMARK    7  A    between atoms: _41  and  _42
REMARK    8  A    between atoms: _44  and  _46
REMARK    9  A    between atoms: _46  and  _47
REMARK   10  A    between atoms: _46  and  _49
REMARK   11  A    between atoms: _49  and  _50
REMARK   12  A    between atoms: _60  and  _62
REMARK   13  A    between atoms: _62  and  _63
REMARK   14  A    between atoms: _62  and  _65
REMARK   15  A    between atoms: _65  and  _66
REMARK   16  A    between atoms: _69  and  _71
REMARK   17  A    between atoms: _71  and  _72
REMARK   18  A    between atoms: _71  and  _74
REMARK   19  A    between atoms: _74  and  _75
REMARK   20  A    between atoms: _80  and  _81
REMARK   21  A    between atoms: _83  and  _85
REMARK   22  A    between atoms: _85  and  _86
REMARK   23  A    between atoms: _85  and  _88
REMARK   24  A    between atoms: _88  and  _89
REMARK   25  A    between atoms: _89  and  _90
REMARK   26  A    between atoms: _93  and  _95
REMARK   27  A    between atoms: _95  and  _96
REMARK   28  A    between atoms: _95  and  _98
REMARK   29  A    between atoms: _98  and  _99
REMARK   30  A    between atoms: _99  and  _100
REMARK   31  A    between atoms: _102  and  _104
REMARK   32  A    between atoms: _104  and  _105
REMARK   33  A    between atoms: _104  and  _107
REMARK   34  A    between atoms: _107  and  _108
REMARK   35  A    between atoms: _111  and  _113
REMARK   36  A    between atoms: _113  and  _114
REMARK   37  A    between atoms: _113  and  _116
REMARK   38  A    between atoms: _116  and  _117
REMARK   39  A    between atoms: _117  and  _119
REMARK   40  A    between atoms: _119  and  ZN_376
REMARK   41  A    between atoms: _121  and  _122
REMARK   42  A    between atoms: _127  and  _129
REMARK   43  A    between atoms: _129  and  _130
REMARK   44  A    between atoms: _129  and  _132
REMARK   45  A    between atoms: _132  and  _133
REMARK   46  A    between atoms: _139  and  _141
REMARK   47  A    between atoms: _141  and  _142
REMARK   48  A    between atoms: _141  and  _144
REMARK   49  A    between atoms: _144  and  _145
REMARK   50  A    between atoms: _145  and  _146
REMARK   51  A    between atoms: _146  and  _147
REMARK   52  A    between atoms: _156  and  _158
REMARK   53  A    between atoms: _158  and  _159
REMARK   54  A    between atoms: _158  and  _161
REMARK   55  A    between atoms: _161  and  _162
REMARK   56  A    between atoms: _167  and  _168
REMARK   57  A    between atoms: _170  and  _172
REMARK   58  A    between atoms: _172  and  _173
REMARK   59  A    between atoms: _172  and  _175
REMARK   60  A    between atoms: _175  and  _176
REMARK   61  A    between atoms: _178  and  _180
REMARK   62  A    between atoms: _180  and  _181
REMARK   63  A    between atoms: _180  and  _183
REMARK   64  A    between atoms: _183  and  _184
REMARK   65  A    between atoms: _189  and  _190
REMARK   66  A    between atoms: _192  and  _194
REMARK   67  A    between atoms: _194  and  _195
REMARK   68  A    between atoms: _194  and  _197
REMARK   69  A    between atoms: _197  and  _198
REMARK   70  A    between atoms: _201  and  _203
REMARK   71  A    between atoms: _203  and  _204
REMARK   72  A    between atoms: _203  and  _206
REMARK   73  A    between atoms: _206  and  _207
REMARK   74  A    between atoms: _210  and  _212
REMARK   75  A    between atoms: _212  and  _213
REMARK   76  A    between atoms: _212  and  _215
REMARK   77  A    between atoms: _215  and  _216
REMARK   78  A    between atoms: _222  and  _224
REMARK   79  A    between atoms: _224  and  _225
REMARK   80  A    between atoms: _224  and  _227
REMARK   81  A    between atoms: _227  and  _228
REMARK   82  A    between atoms: _233  and  _234
REMARK   83  A    between atoms: _236  and  _238
REMARK   84  A    between atoms: _238  and  _239
REMARK   85  A    between atoms: _238  and  _241
REMARK   86  A    between atoms: _241  and  _242
REMARK   87  A    between atoms: _245  and  _247
REMARK   88  A    between atoms: _247  and  _248
REMARK   89  A    between atoms: _247  and  _250
REMARK   90  A    between atoms: _250  and  _251
REMARK   91  A    between atoms: _261  and  _263
REMARK   92  A    between atoms: _263  and  _264
REMARK   93  A    between atoms: _263  and  _266
REMARK   94  A    between atoms: _266  and  _267
REMARK   95  A    between atoms: _272  and  _274
REMARK   96  A    between atoms: _274  and  _275
REMARK   97  A    between atoms: _274  and  _277
REMARK   98  A    between atoms: _277  and  _278
REMARK   99  A    between atoms: _282  and  ZN_376
REMARK  100  A    between atoms: _283  and  _285
REMARK  101  A    between atoms: _285  and  _286
REMARK  102  A    between atoms: _285  and  _288
REMARK  103  A    between atoms: _288  and  _289
REMARK  104  A    between atoms: _292  and  _294
REMARK  105  A    between atoms: _294  and  _295
REMARK  106  A    between atoms: _297  and  _299
REMARK  107  A    between atoms: _299  and  _300
REMARK  108  A    between atoms: _299  and  _302
REMARK  109  A    between atoms: _302  and  _303
REMARK  110  A    between atoms: _306  and  _308
REMARK  111  A    between atoms: _308  and  _309
REMARK  112  A    between atoms: _308  and  _311
REMARK  113  A    between atoms: _311  and  _312
REMARK  114  A    between atoms: _315  and  _317
REMARK  115  A    between atoms: _317  and  _318
REMARK  116  A    between atoms: _321  and  _323
REMARK  117  A    between atoms: _323  and  _324
REMARK  118  A    between atoms: _323  and  _326
REMARK  119  A    between atoms: _326  and  _327
REMARK  120  A    between atoms: _332  and  _333
REMARK  121  A    between atoms: _335  and  _337
REMARK  122  A    between atoms: _337  and  _338
REMARK  123  A    between atoms: _337  and  _340
REMARK  124  A    between atoms: _340  and  _341
REMARK  125  A    between atoms: _341  and  _342
REMARK  126  A    between atoms: _345  and  _347
REMARK  127  A    between atoms: _347  and  _348
REMARK  128  A    between atoms: _347  and  _350
REMARK  129  A    between atoms: _350  and  _351
REMARK  130  A    between atoms: _351  and  _352
REMARK  131  A    between atoms: _352  and  _353
REMARK  132  A    between atoms: _362  and  _364
REMARK  133  A    between atoms: _364  and  _365
REMARK  134  A    between atoms: _367  and  _369
REMARK  135  A    between atoms: _369  and  _370
REMARK  136  A    between atoms: _369  and  _372
REMARK  137  A    between atoms: _372  and  _373
REMARK                            x       y       z     vdW  Elec       q    Type
REMARK                         _______ _______ _______ _____ _____    ______ ____
ROOT
ATOM      1  O   HOH     1      30.360  66.948  13.403  0.00  0.00    +0.000 OA
ENDROOT
TORSDOF 0
REMARK  Name = ../refined-set-2016/2f7o/2f7o_pocket.pdb
REMARK  137 active torsions:
REMARK  status: ('A' for Active; 'I' for Inactive)
REMARK    1  A    between atoms: _1  and  _3
REMARK    2  A    between atoms: _14  and  _17
REMARK    3  A    between atoms: _17  and  _18
REMARK    4  A    between atoms: _25  and  _26
REMARK    5  A    between atoms: _33  and  _34
REMARK    6  A    between atoms: _39  and  _41
REMARK    7  A    between atoms: _41  and  _42
REMARK    8  A    between atoms: _44  and  _46
REMARK    9  A    between atoms: _46  and  _47
REMARK   10  A    between atoms: _46  and  _49
REMARK   11  A    between atoms: _49  and  _50
REMARK   12  A    between atoms: _60  and  _62
REMARK   13  A    between atoms: _62  and  _63
REMARK   14  A    between atoms: _62  and  _65
REMARK   15  A    between atoms: _65  and  _66
REMARK   16  A    between atoms: _69  and  _71
REMARK   17  A    between atoms: _71  and  _72
REMARK   18  A    between atoms: _71  and  _74
REMARK   19  A    between atoms: _74  and  _75
REMARK   20  A    between atoms: _80  and  _81
REMARK   21  A    between atoms: _83  and  _85
REMARK   22  A    between atoms: _85  and  _86
REMARK   23  A    between atoms: _85  and  _88
REMARK   24  A    between atoms: _88  and  _89
REMARK   25  A    between atoms: _89  and  _90
REMARK   26  A    between atoms: _93  and  _95
REMARK   27  A    between atoms: _95  and  _96
REMARK   28  A    between atoms: _95  and  _98
REMARK   29  A    between atoms: _98  and  _99
REMARK   30  A    between atoms: _99  and  _100
REMARK   31  A    between atoms: _102  and  _104
REMARK   32  A    between atoms: _104  and  _105
REMARK   33  A    between atoms: _104  and  _107
REMARK   34  A    between atoms: _107  and  _108
REMARK   35  A    between atoms: _111  and  _113
REMARK   36  A    between atoms: _113  and  _114
REMARK   37  A    between atoms: _113  and  _116
REMARK   38  A    between atoms: _116  and  _117
REMARK   39  A    between atoms: _117  and  _119
REMARK   40  A    between atoms: _119  and  ZN_376
REMARK   41  A    between atoms: _121  and  _122
REMARK   42  A    between atoms: _127  and  _129
REMARK   43  A    between atoms: _129  and  _130
REMARK   44  A    between atoms: _129  and  _132
REMARK   45  A    between atoms: _132  and  _133
REMARK   46  A    between atoms: _139  and  _141
REMARK   47  A    between atoms: _141  and  _142
REMARK   48  A    between atoms: _141  and  _144
REMARK   49  A    between atoms: _144  and  _145
REMARK   50  A    between atoms: _145  and  _146
REMARK   51  A    between atoms: _146  and  _147
REMARK   52  A    between atoms: _156  and  _158
REMARK   53  A    between atoms: _158  and  _159
REMARK   54  A    between atoms: _158  and  _161
REMARK   55  A    between atoms: _161  and  _162
REMARK   56  A    between atoms: _167  and  _168
REMARK   57  A    between atoms: _170  and  _172
REMARK   58  A    between atoms: _172  and  _173
REMARK   59  A    between atoms: _172  and  _175
REMARK   60  A    between atoms: _175  and  _176
REMARK   61  A    between atoms: _178  and  _180
REMARK   62  A    between atoms: _180  and  _181
REMARK   63  A    between atoms: _180  and  _183
REMARK   64  A    between atoms: _183  and  _184
REMARK   65  A    between atoms: _189  and  _190
REMARK   66  A    between atoms: _192  and  _194
REMARK   67  A    between atoms: _194  and  _195
REMARK   68  A    between atoms: _194  and  _197
REMARK   69  A    between atoms: _197  and  _198
REMARK   70  A    between atoms: _201  and  _203
REMARK   71  A    between atoms: _203  and  _204
REMARK   72  A    between atoms: _203  and  _206
REMARK   73  A    between atoms: _206  and  _207
REMARK   74  A    between atoms: _210  and  _212
REMARK   75  A    between atoms: _212  and  _213
REMARK   76  A    between atoms: _212  and  _215
REMARK   77  A    between atoms: _215  and  _216
REMARK   78  A    between atoms: _222  and  _224
REMARK   79  A    between atoms: _224  and  _225
REMARK   80  A    between atoms: _224  and  _227
REMARK   81  A    between atoms: _227  and  _228
REMARK   82  A    between atoms: _233  and  _234
REMARK   83  A    between atoms: _236  and  _238
REMARK   84  A    between atoms: _238  and  _239
REMARK   85  A    between atoms: _238  and  _241
REMARK   86  A    between atoms: _241  and  _242
REMARK   87  A    between atoms: _245  and  _247
REMARK   88  A    between atoms: _247  and  _248
REMARK   89  A    between atoms: _247  and  _250
REMARK   90  A    between atoms: _250  and  _251
REMARK   91  A    between atoms: _261  and  _263
REMARK   92  A    between atoms: _263  and  _264
REMARK   93  A    between atoms: _263  and  _266
REMARK   94  A    between atoms: _266  and  _267
REMARK   95  A    between atoms: _272  and  _274
REMARK   96  A    between atoms: _274  and  _275
REMARK   97  A    between atoms: _274  and  _277
REMARK   98  A    between atoms: _277  and  _278
REMARK   99  A    between atoms: _282  and  ZN_376
REMARK  100  A    between atoms: _283  and  _285
REMARK  101  A    between atoms: _285  and  _286
REMARK  102  A    between atoms: _285  and  _288
REMARK  103  A    between atoms: _288  and  _289
REMARK  104  A    between atoms: _292  and  _294
REMARK  105  A    between atoms: _294  and  _295
REMARK  106  A    between atoms: _297  and  _299
REMARK  107  A    between atoms: _299  and  _300
REMARK  108  A    between atoms: _299  and  _302
REMARK  109  A    between atoms: _302  and  _303
REMARK  110  A    between atoms: _306  and  _308
REMARK  111  A    between atoms: _308  and  _309
REMARK  112  A    between atoms: _308  and  _311
REMARK  113  A    between atoms: _311  and  _312
REMARK  114  A    between atoms: _315  and  _317
REMARK  115  A    between atoms: _317  and  _318
REMARK  116  A    between atoms: _321  and  _323
REMARK  117  A    between atoms: _323  and  _324
REMARK  118  A    between atoms: _323  and  _326
REMARK  119  A    between atoms: _326  and  _327
REMARK  120  A    between atoms: _332  and  _333
REMARK  121  A    between atoms: _335  and  _337
REMARK  122  A    between atoms: _337  and  _338
REMARK  123  A    between atoms: _337  and  _340
REMARK  124  A    between atoms: _340  and  _341
REMARK  125  A    between atoms: _341  and  _342
REMARK  126  A    between atoms: _345  and  _347
REMARK  127  A    between atoms: _347  and  _348
REMARK  128  A    between atoms: _347  and  _350
REMARK  129  A    between atoms: _350  and  _351
REMARK  130  A    between atoms: _351  and  _352
REMARK  131  A    between atoms: _352  and  _353
REMARK  132  A    between atoms: _362  and  _364
REMARK  133  A    between atoms: _364  and  _365
REMARK  134  A    between atoms: _367  and  _369
REMARK  135  A    between atoms: _369  and  _370
REMARK  136  A    between atoms: _369  and  _372
REMARK  137  A    between atoms: _372  and  _373
REMARK                            x       y       z     vdW  Elec       q    Type
REMARK                         _______ _______ _______ _____ _____    ______ ____
ROOT
ATOM      1  O   HOH     1      28.074  67.607  11.542  0.00  0.00    +0.000 OA
ENDROOT
TORSDOF 0
REMARK  Name = ../refined-set-2016/2f7o/2f7o_pocket.pdb
REMARK  137 active torsions:
REMARK  status: ('A' for Active; 'I' for Inactive)
REMARK    1  A    between atoms: _1  and  _3
REMARK    2  A    between atoms: _14  and  _17
REMARK    3  A    between atoms: _17  and  _18
REMARK    4  A    between atoms: _25  and  _26
REMARK    5  A    between atoms: _33  and  _34
REMARK    6  A    between atoms: _39  and  _41
REMARK    7  A    between atoms: _41  and  _42
REMARK    8  A    between atoms: _44  and  _46
REMARK    9  A    between atoms: _46  and  _47
REMARK   10  A    between atoms: _46  and  _49
REMARK   11  A    between atoms: _49  and  _50
REMARK   12  A    between atoms: _60  and  _62
REMARK   13  A    between atoms: _62  and  _63
REMARK   14  A    between atoms: _62  and  _65
REMARK   15  A    between atoms: _65  and  _66
REMARK   16  A    between atoms: _69  and  _71
REMARK   17  A    between atoms: _71  and  _72
REMARK   18  A    between atoms: _71  and  _74
REMARK   19  A    between atoms: _74  and  _75
REMARK   20  A    between atoms: _80  and  _81
REMARK   21  A    between atoms: _83  and  _85
REMARK   22  A    between atoms: _85  and  _86
REMARK   23  A    between atoms: _85  and  _88
REMARK   24  A    between atoms: _88  and  _89
REMARK   25  A    between atoms: _89  and  _90
REMARK   26  A    between atoms: _93  and  _95
REMARK   27  A    between atoms: _95  and  _96
REMARK   28  A    between atoms: _95  and  _98
REMARK   29  A    between atoms: _98  and  _99
REMARK   30  A    between atoms: _99  and  _100
REMARK   31  A    between atoms: _102  and  _104
REMARK   32  A    between atoms: _104  and  _105
REMARK   33  A    between atoms: _104  and  _107
REMARK   34  A    between atoms: _107  and  _108
REMARK   35  A    between atoms: _111  and  _113
REMARK   36  A    between atoms: _113  and  _114
REMARK   37  A    between atoms: _113  and  _116
REMARK   38  A    between atoms: _116  and  _117
REMARK   39  A    between atoms: _117  and  _119
REMARK   40  A    between atoms: _119  and  ZN_376
REMARK   41  A    between atoms: _121  and  _122
REMARK   42  A    between atoms: _127  and  _129
REMARK   43  A    between atoms: _129  and  _130
REMARK   44  A    between atoms: _129  and  _132
REMARK   45  A    between atoms: _132  and  _133
REMARK   46  A    between atoms: _139  and  _141
REMARK   47  A    between atoms: _141  and  _142
REMARK   48  A    between atoms: _141  and  _144
REMARK   49  A    between atoms: _144  and  _145
REMARK   50  A    between atoms: _145  and  _146
REMARK   51  A    between atoms: _146  and  _147
REMARK   52  A    between atoms: _156  and  _158
REMARK   53  A    between atoms: _158  and  _159
REMARK   54  A    between atoms: _158  and  _161
REMARK   55  A    between atoms: _161  and  _162
REMARK   56  A    between atoms: _167  and  _168
REMARK   57  A    between atoms: _170  and  _172
REMARK   58  A    between atoms: _172  and  _173
REMARK   59  A    between atoms: _172  and  _175
REMARK   60  A    between atoms: _175  and  _176
REMARK   61  A    between atoms: _178  and  _180
REMARK   62  A    between atoms: _180  and  _181
REMARK   63  A    between atoms: _180  and  _183
REMARK   64  A    between atoms: _183  and  _184
REMARK   65  A    between atoms: _189  and  _190
REMARK   66  A    between atoms: _192  and  _194
REMARK   67  A    between atoms: _194  and  _195
REMARK   68  A    between atoms: _194  and  _197
REMARK   69  A    between atoms: _197  and  _198
REMARK   70  A    between atoms: _201  and  _203
REMARK   71  A    between atoms: _203  and  _204
REMARK   72  A    between atoms: _203  and  _206
REMARK   73  A    between atoms: _206  and  _207
REMARK   74  A    between atoms: _210  and  _212
REMARK   75  A    between atoms: _212  and  _213
REMARK   76  A    between atoms: _212  and  _215
REMARK   77  A    between atoms: _215  and  _216
REMARK   78  A    between atoms: _222  and  _224
REMARK   79  A    between atoms: _224  and  _225
REMARK   80  A    between atoms: _224  and  _227
REMARK   81  A    between atoms: _227  and  _228
REMARK   82  A    between atoms: _233  and  _234
REMARK   83  A    between atoms: _236  and  _238
REMARK   84  A    between atoms: _238  and  _239
REMARK   85  A    between atoms: _238  and  _241
REMARK   86  A    between atoms: _241  and  _242
REMARK   87  A    between atoms: _245  and  _247
REMARK   88  A    between atoms: _247  and  _248
REMARK   89  A    between atoms: _247  and  _250
REMARK   90  A    between atoms: _250  and  _251
REMARK   91  A    between atoms: _261  and  _263
REMARK   92  A    between atoms: _263  and  _264
REMARK   93  A    between atoms: _263  and  _266
REMARK   94  A    between atoms: _266  and  _267
REMARK   95  A    between atoms: _272  and  _274
REMARK   96  A    between atoms: _274  and  _275
REMARK   97  A    between atoms: _274  and  _277
REMARK   98  A    between atoms: _277  and  _278
REMARK   99  A    between atoms: _282  and  ZN_376
REMARK  100  A    between atoms: _283  and  _285
REMARK  101  A    between atoms: _285  and  _286
REMARK  102  A    between atoms: _285  and  _288
REMARK  103  A    between atoms: _288  and  _289
REMARK  104  A    between atoms: _292  and  _294
REMARK  105  A    between atoms: _294  and  _295
REMARK  106  A    between atoms: _297  and  _299
REMARK  107  A    between atoms: _299  and  _300
REMARK  108  A    between atoms: _299  and  _302
REMARK  109  A    between atoms: _302  and  _303
REMARK  110  A    between atoms: _306  and  _308
REMARK  111  A    between atoms: _308  and  _309
REMARK  112  A    between atoms: _308  and  _311
REMARK  113  A    between atoms: _311  and  _312
REMARK  114  A    between atoms: _315  and  _317
REMARK  115  A    between atoms: _317  and  _318
REMARK  116  A    between atoms: _321  and  _323
REMARK  117  A    between atoms: _323  and  _324
REMARK  118  A    between atoms: _323  and  _326
REMARK  119  A    between atoms: _326  and  _327
REMARK  120  A    between atoms: _332  and  _333
REMARK  121  A    between atoms: _335  and  _337
REMARK  122  A    between atoms: _337  and  _338
REMARK  123  A    between atoms: _337  and  _340
REMARK  124  A    between atoms: _340  and  _341
REMARK  125  A    between atoms: _341  and  _342
REMARK  126  A    between atoms: _345  and  _347
REMARK  127  A    between atoms: _347  and  _348
REMARK  128  A    between atoms: _347  and  _350
REMARK  129  A    between atoms: _350  and  _351
REMARK  130  A    between atoms: _351  and  _352
REMARK  131  A    between atoms: _352  and  _353
REMARK  132  A    between atoms: _362  and  _364
REMARK  133  A    between atoms: _364  and  _365
REMARK  134  A    between atoms: _367  and  _369
REMARK  135  A    between atoms: _369  and  _370
REMARK  136  A    between atoms: _369  and  _372
REMARK  137  A    between atoms: _372  and  _373
REMARK                            x       y       z     vdW  Elec       q    Type
REMARK                         _______ _______ _______ _____ _____    ______ ____
ROOT
ATOM      1  O   HOH     1      26.202  66.951  10.077  0.00  0.00    +0.000 OA
ENDROOT
TORSDOF 0
REMARK  Name = ../refined-set-2016/2f7o/2f7o_pocket.pdb
REMARK  137 active torsions:
REMARK  status: ('A' for Active; 'I' for Inactive)
REMARK    1  A    between atoms: _1  and  _3
REMARK    2  A    between atoms: _14  and  _17
REMARK    3  A    between atoms: _17  and  _18
REMARK    4  A    between atoms: _25  and  _26
REMARK    5  A    between atoms: _33  and  _34
REMARK    6  A    between atoms: _39  and  _41
REMARK    7  A    between atoms: _41  and  _42
REMARK    8  A    between atoms: _44  and  _46
REMARK    9  A    between atoms: _46  and  _47
REMARK   10  A    between atoms: _46  and  _49
REMARK   11  A    between atoms: _49  and  _50
REMARK   12  A    between atoms: _60  and  _62
REMARK   13  A    between atoms: _62  and  _63
REMARK   14  A    between atoms: _62  and  _65
REMARK   15  A    between atoms: _65  and  _66
REMARK   16  A    between atoms: _69  and  _71
REMARK   17  A    between atoms: _71  and  _72
REMARK   18  A    between atoms: _71  and  _74
REMARK   19  A    between atoms: _74  and  _75
REMARK   20  A    between atoms: _80  and  _81
REMARK   21  A    between atoms: _83  and  _85
REMARK   22  A    between atoms: _85  and  _86
REMARK   23  A    between atoms: _85  and  _88
REMARK   24  A    between atoms: _88  and  _89
REMARK   25  A    between atoms: _89  and  _90
REMARK   26  A    between atoms: _93  and  _95
REMARK   27  A    between atoms: _95  and  _96
REMARK   28  A    between atoms: _95  and  _98
REMARK   29  A    between atoms: _98  and  _99
REMARK   30  A    between atoms: _99  and  _100
REMARK   31  A    between atoms: _102  and  _104
REMARK   32  A    between atoms: _104  and  _105
REMARK   33  A    between atoms: _104  and  _107
REMARK   34  A    between atoms: _107  and  _108
REMARK   35  A    between atoms: _111  and  _113
REMARK   36  A    between atoms: _113  and  _114
REMARK   37  A    between atoms: _113  and  _116
REMARK   38  A    between atoms: _116  and  _117
REMARK   39  A    between atoms: _117  and  _119
REMARK   40  A    between atoms: _119  and  ZN_376
REMARK   41  A    between atoms: _121  and  _122
REMARK   42  A    between atoms: _127  and  _129
REMARK   43  A    between atoms: _129  and  _130
REMARK   44  A    between atoms: _129  and  _132
REMARK   45  A    between atoms: _132  and  _133
REMARK   46  A    between atoms: _139  and  _141
REMARK   47  A    between atoms: _141  and  _142
REMARK   48  A    between atoms: _141  and  _144
REMARK   49  A    between atoms: _144  and  _145
REMARK   50  A    between atoms: _145  and  _146
REMARK   51  A    between atoms: _146  and  _147
REMARK   52  A    between atoms: _156  and  _158
REMARK   53  A    between atoms: _158  and  _159
REMARK   54  A    between atoms: _158  and  _161
REMARK   55  A    between atoms: _161  and  _162
REMARK   56  A    between atoms: _167  and  _168
REMARK   57  A    between atoms: _170  and  _172
REMARK   58  A    between atoms: _172  and  _173
REMARK   59  A    between atoms: _172  and  _175
REMARK   60  A    between atoms: _175  and  _176
REMARK   61  A    between atoms: _178  and  _180
REMARK   62  A    between atoms: _180  and  _181
REMARK   63  A    between atoms: _180  and  _183
REMARK   64  A    between atoms: _183  and  _184
REMARK   65  A    between atoms: _189  and  _190
REMARK   66  A    between atoms: _192  and  _194
REMARK   67  A    between atoms: _194  and  _195
REMARK   68  A    between atoms: _194  and  _197
REMARK   69  A    between atoms: _197  and  _198
REMARK   70  A    between atoms: _201  and  _203
REMARK   71  A    between atoms: _203  and  _204
REMARK   72  A    between atoms: _203  and  _206
REMARK   73  A    between atoms: _206  and  _207
REMARK   74  A    between atoms: _210  and  _212
REMARK   75  A    between atoms: _212  and  _213
REMARK   76  A    between atoms: _212  and  _215
REMARK   77  A    between atoms: _215  and  _216
REMARK   78  A    between atoms: _222  and  _224
REMARK   79  A    between atoms: _224  and  _225
REMARK   80  A    between atoms: _224  and  _227
REMARK   81  A    between atoms: _227  and  _228
REMARK   82  A    between atoms: _233  and  _234
REMARK   83  A    between atoms: _236  and  _238
REMARK   84  A    between atoms: _238  and  _239
REMARK   85  A    between atoms: _238  and  _241
REMARK   86  A    between atoms: _241  and  _242
REMARK   87  A    between atoms: _245  and  _247
REMARK   88  A    between atoms: _247  and  _248
REMARK   89  A    between atoms: _247  and  _250
REMARK   90  A    between atoms: _250  and  _251
REMARK   91  A    between atoms: _261  and  _263
REMARK   92  A    between atoms: _263  and  _264
REMARK   93  A    between atoms: _263  and  _266
REMARK   94  A    between atoms: _266  and  _267
REMARK   95  A    between atoms: _272  and  _274
REMARK   96  A    between atoms: _274  and  _275
REMARK   97  A    between atoms: _274  and  _277
REMARK   98  A    between atoms: _277  and  _278
REMARK   99  A    between atoms: _282  and  ZN_376
REMARK  100  A    between atoms: _283  and  _285
REMARK  101  A    between atoms: _285  and  _286
REMARK  102  A    between atoms: _285  and  _288
REMARK  103  A    between atoms: _288  and  _289
REMARK  104  A    between atoms: _292  and  _294
REMARK  105  A    between atoms: _294  and  _295
REMARK  106  A    between atoms: _297  and  _299
REMARK  107  A    between atoms: _299  and  _300
REMARK  108  A    between atoms: _299  and  _302
REMARK  109  A    between atoms: _302  and  _303
REMARK  110  A    between atoms: _306  and  _308
REMARK  111  A    between atoms: _308  and  _309
REMARK  112  A    between atoms: _308  and  _311
REMARK  113  A    between atoms: _311  and  _312
REMARK  114  A    between atoms: _315  and  _317
REMARK  115  A    between atoms: _317  and  _318
REMARK  116  A    between atoms: _321  and  _323
REMARK  117  A    between atoms: _323  and  _324
REMARK  118  A    between atoms: _323  and  _326
REMARK  119  A    between atoms: _326  and  _327
REMARK  120  A    between atoms: _332  and  _333
REMARK  121  A    between atoms: _335  and  _337
REMARK  122  A    between atoms: _337  and  _338
REMARK  123  A    between atoms: _337  and  _340
REMARK  124  A    between atoms: _340  and  _341
REMARK  125  A    between atoms: _341  and  _342
REMARK  126  A    between atoms: _345  and  _347
REMARK  127  A    between atoms: _347  and  _348
REMARK  128  A    between atoms: _347  and  _350
REMARK  129  A    between atoms: _350  and  _351
REMARK  130  A    between atoms: _351  and  _352
REMARK  131  A    between atoms: _352  and  _353
REMARK  132  A    between atoms: _362  and  _364
REMARK  133  A    between atoms: _364  and  _365
REMARK  134  A    between atoms: _367  and  _369
REMARK  135  A    between atoms: _369  and  _370
REMARK  136  A    between atoms: _369  and  _372
REMARK  137  A    between atoms: _372  and  _373
REMARK                            x       y       z     vdW  Elec       q    Type
REMARK                         _______ _______ _______ _____ _____    ______ ____
ROOT
ATOM      1  O   HOH     1      25.930  65.113   8.614  0.00  0.00    +0.000 OA
ENDROOT
TORSDOF 0
REMARK  Name = ../refined-set-2016/2f7o/2f7o_pocket.pdb
REMARK  137 active torsions:
REMARK  status: ('A' for Active; 'I' for Inactive)
REMARK    1  A    between atoms: _1  and  _3
REMARK    2  A    between atoms: _14  and  _17
REMARK    3  A    between atoms: _17  and  _18
REMARK    4  A    between atoms: _25  and  _26
REMARK    5  A    between atoms: _33  and  _34
REMARK    6  A    between atoms: _39  and  _41
REMARK    7  A    between atoms: _41  and  _42
REMARK    8  A    between atoms: _44  and  _46
REMARK    9  A    between atoms: _46  and  _47
REMARK   10  A    between atoms: _46  and  _49
REMARK   11  A    between atoms: _49  and  _50
REMARK   12  A    between atoms: _60  and  _62
REMARK   13  A    between atoms: _62  and  _63
REMARK   14  A    between atoms: _62  and  _65
REMARK   15  A    between atoms: _65  and  _66
REMARK   16  A    between atoms: _69  and  _71
REMARK   17  A    between atoms: _71  and  _72
REMARK   18  A    between atoms: _71  and  _74
REMARK   19  A    between atoms: _74  and  _75
REMARK   20  A    between atoms: _80  and  _81
REMARK   21  A    between atoms: _83  and  _85
REMARK   22  A    between atoms: _85  and  _86
REMARK   23  A    between atoms: _85  and  _88
REMARK   24  A    between atoms: _88  and  _89
REMARK   25  A    between atoms: _89  and  _90
REMARK   26  A    between atoms: _93  and  _95
REMARK   27  A    between atoms: _95  and  _96
REMARK   28  A    between atoms: _95  and  _98
REMARK   29  A    between atoms: _98  and  _99
REMARK   30  A    between atoms: _99  and  _100
REMARK   31  A    between atoms: _102  and  _104
REMARK   32  A    between atoms: _104  and  _105
REMARK   33  A    between atoms: _104  and  _107
REMARK   34  A    between atoms: _107  and  _108
REMARK   35  A    between atoms: _111  and  _113
REMARK   36  A    between atoms: _113  and  _114
REMARK   37  A    between atoms: _113  and  _116
REMARK   38  A    between atoms: _116  and  _117
REMARK   39  A    between atoms: _117  and  _119
REMARK   40  A    between atoms: _119  and  ZN_376
REMARK   41  A    between atoms: _121  and  _122
REMARK   42  A    between atoms: _127  and  _129
REMARK   43  A    between atoms: _129  and  _130
REMARK   44  A    between atoms: _129  and  _132
REMARK   45  A    between atoms: _132  and  _133
REMARK   46  A    between atoms: _139  and  _141
REMARK   47  A    between atoms: _141  and  _142
REMARK   48  A    between atoms: _141  and  _144
REMARK   49  A    between atoms: _144  and  _145
REMARK   50  A    between atoms: _145  and  _146
REMARK   51  A    between atoms: _146  and  _147
REMARK   52  A    between atoms: _156  and  _158
REMARK   53  A    between atoms: _158  and  _159
REMARK   54  A    between atoms: _158  and  _161
REMARK   55  A    between atoms: _161  and  _162
REMARK   56  A    between atoms: _167  and  _168
REMARK   57  A    between atoms: _170  and  _172
REMARK   58  A    between atoms: _172  and  _173
REMARK   59  A    between atoms: _172  and  _175
REMARK   60  A    between atoms: _175  and  _176
REMARK   61  A    between atoms: _178  and  _180
REMARK   62  A    between atoms: _180  and  _181
REMARK   63  A    between atoms: _180  and  _183
REMARK   64  A    between atoms: _183  and  _184
REMARK   65  A    between atoms: _189  and  _190
REMARK   66  A    between atoms: _192  and  _194
REMARK   67  A    between atoms: _194  and  _195
REMARK   68  A    between atoms: _194  and  _197
REMARK   69  A    between atoms: _197  and  _198
REMARK   70  A    between atoms: _201  and  _203
REMARK   71  A    between atoms: _203  and  _204
REMARK   72  A    between atoms: _203  and  _206
REMARK   73  A    between atoms: _206  and  _207
REMARK   74  A    between atoms: _210  and  _212
REMARK   75  A    between atoms: _212  and  _213
REMARK   76  A    between atoms: _212  and  _215
REMARK   77  A    between atoms: _215  and  _216
REMARK   78  A    between atoms: _222  and  _224
REMARK   79  A    between atoms: _224  and  _225
REMARK   80  A    between atoms: _224  and  _227
REMARK   81  A    between atoms: _227  and  _228
REMARK   82  A    between atoms: _233  and  _234
REMARK   83  A    between atoms: _236  and  _238
REMARK   84  A    between atoms: _238  and  _239
REMARK   85  A    between atoms: _238  and  _241
REMARK   86  A    between atoms: _241  and  _242
REMARK   87  A    between atoms: _245  and  _247
REMARK   88  A    between atoms: _247  and  _248
REMARK   89  A    between atoms: _247  and  _250
REMARK   90  A    between atoms: _250  and  _251
REMARK   91  A    between atoms: _261  and  _263
REMARK   92  A    between atoms: _263  and  _264
REMARK   93  A    between atoms: _263  and  _266
REMARK   94  A    between atoms: _266  and  _267
REMARK   95  A    between atoms: _272  and  _274
REMARK   96  A    between atoms: _274  and  _275
REMARK   97  A    between atoms: _274  and  _277
REMARK   98  A    between atoms: _277  and  _278
REMARK   99  A    between atoms: _282  and  ZN_376
REMARK  100  A    between atoms: _283  and  _285
REMARK  101  A    between atoms: _285  and  _286
REMARK  102  A    between atoms: _285  and  _288
REMARK  103  A    between atoms: _288  and  _289
REMARK  104  A    between atoms: _292  and  _294
REMARK  105  A    between atoms: _294  and  _295
REMARK  106  A    between atoms: _297  and  _299
REMARK  107  A    between atoms: _299  and  _300
REMARK  108  A    between atoms: _299  and  _302
REMARK  109  A    between atoms: _302  and  _303
REMARK  110  A    between atoms: _306  and  _308
REMARK  111  A    between atoms: _308  and  _309
REMARK  112  A    between atoms: _308  and  _311
REMARK  113  A    between atoms: _311  and  _312
REMARK  114  A    between atoms: _315  and  _317
REMARK  115  A    between atoms: _317  and  _318
REMARK  116  A    between atoms: _321  and  _323
REMARK  117  A    between atoms: _323  and  _324
REMARK  118  A    between atoms: _323  and  _326
REMARK  119  A    between atoms: _326  and  _327
REMARK  120  A    between atoms: _332  and  _333
REMARK  121  A    between atoms: _335  and  _337
REMARK  122  A    between atoms: _337  and  _338
REMARK  123  A    between atoms: _337  and  _340
REMARK  124  A    between atoms: _340  and  _341
REMARK  125  A    between atoms: _341  and  _342
REMARK  126  A    between atoms: _345  and  _347
REMARK  127  A    between atoms: _347  and  _348
REMARK  128  A    between atoms: _347  and  _350
REMARK  129  A    between atoms: _350  and  _351
REMARK  130  A    between atoms: _351  and  _352
REMARK  131  A    between atoms: _352  and  _353
REMARK  132  A    between atoms: _362  and  _364
REMARK  133  A    between atoms: _364  and  _365
REMARK  134  A    between atoms: _367  and  _369
REMARK  135  A    between atoms: _369  and  _370
REMARK  136  A    between atoms: _369  and  _372
REMARK  137  A    between atoms: _372  and  _373
REMARK                            x       y       z     vdW  Elec       q    Type
REMARK                         _______ _______ _______ _____ _____    ______ ____
ROOT
ATOM      1  O   HOH     1      24.195  63.236   7.625  0.00  0.00    +0.000 OA
ENDROOT
TORSDOF 0
REMARK  Name = ../refined-set-2016/2f7o/2f7o_pocket.pdb
REMARK  137 active torsions:
REMARK  status: ('A' for Active; 'I' for Inactive)
REMARK    1  A    between atoms: _1  and  _3
REMARK    2  A    between atoms: _14  and  _17
REMARK    3  A    between atoms: _17  and  _18
REMARK    4  A    between atoms: _25  and  _26
REMARK    5  A    between atoms: _33  and  _34
REMARK    6  A    between atoms: _39  and  _41
REMARK    7  A    between atoms: _41  and  _42
REMARK    8  A    between atoms: _44  and  _46
REMARK    9  A    between atoms: _46  and  _47
REMARK   10  A    between atoms: _46  and  _49
REMARK   11  A    between atoms: _49  and  _50
REMARK   12  A    between atoms: _60  and  _62
REMARK   13  A    between atoms: _62  and  _63
REMARK   14  A    between atoms: _62  and  _65
REMARK   15  A    between atoms: _65  and  _66
REMARK   16  A    between atoms: _69  and  _71
REMARK   17  A    between atoms: _71  and  _72
REMARK   18  A    between atoms: _71  and  _74
REMARK   19  A    between atoms: _74  and  _75
REMARK   20  A    between atoms: _80  and  _81
REMARK   21  A    between atoms: _83  and  _85
REMARK   22  A    between atoms: _85  and  _86
REMARK   23  A    between atoms: _85  and  _88
REMARK   24  A    between atoms: _88  and  _89
REMARK   25  A    between atoms: _89  and  _90
REMARK   26  A    between atoms: _93  and  _95
REMARK   27  A    between atoms: _95  and  _96
REMARK   28  A    between atoms: _95  and  _98
REMARK   29  A    between atoms: _98  and  _99
REMARK   30  A    between atoms: _99  and  _100
REMARK   31  A    between atoms: _102  and  _104
REMARK   32  A    between atoms: _104  and  _105
REMARK   33  A    between atoms: _104  and  _107
REMARK   34  A    between atoms: _107  and  _108
REMARK   35  A    between atoms: _111  and  _113
REMARK   36  A    between atoms: _113  and  _114
REMARK   37  A    between atoms: _113  and  _116
REMARK   38  A    between atoms: _116  and  _117
REMARK   39  A    between atoms: _117  and  _119
REMARK   40  A    between atoms: _119  and  ZN_376
REMARK   41  A    between atoms: _121  and  _122
REMARK   42  A    between atoms: _127  and  _129
REMARK   43  A    between atoms: _129  and  _130
REMARK   44  A    between atoms: _129  and  _132
REMARK   45  A    between atoms: _132  and  _133
REMARK   46  A    between atoms: _139  and  _141
REMARK   47  A    between atoms: _141  and  _142
REMARK   48  A    between atoms: _141  and  _144
REMARK   49  A    between atoms: _144  and  _145
REMARK   50  A    between atoms: _145  and  _146
REMARK   51  A    between atoms: _146  and  _147
REMARK   52  A    between atoms: _156  and  _158
REMARK   53  A    between atoms: _158  and  _159
REMARK   54  A    between atoms: _158  and  _161
REMARK   55  A    between atoms: _161  and  _162
REMARK   56  A    between atoms: _167  and  _168
REMARK   57  A    between atoms: _170  and  _172
REMARK   58  A    between atoms: _172  and  _173
REMARK   59  A    between atoms: _172  and  _175
REMARK   60  A    between atoms: _175  and  _176
REMARK   61  A    between atoms: _178  and  _180
REMARK   62  A    between atoms: _180  and  _181
REMARK   63  A    between atoms: _180  and  _183
REMARK   64  A    between atoms: _183  and  _184
REMARK   65  A    between atoms: _189  and  _190
REMARK   66  A    between atoms: _192  and  _194
REMARK   67  A    between atoms: _194  and  _195
REMARK   68  A    between atoms: _194  and  _197
REMARK   69  A    between atoms: _197  and  _198
REMARK   70  A    between atoms: _201  and  _203
REMARK   71  A    between atoms: _203  and  _204
REMARK   72  A    between atoms: _203  and  _206
REMARK   73  A    between atoms: _206  and  _207
REMARK   74  A    between atoms: _210  and  _212
REMARK   75  A    between atoms: _212  and  _213
REMARK   76  A    between atoms: _212  and  _215
REMARK   77  A    between atoms: _215  and  _216
REMARK   78  A    between atoms: _222  and  _224
REMARK   79  A    between atoms: _224  and  _225
REMARK   80  A    between atoms: _224  and  _227
REMARK   81  A    between atoms: _227  and  _228
REMARK   82  A    between atoms: _233  and  _234
REMARK   83  A    between atoms: _236  and  _238
REMARK   84  A    between atoms: _238  and  _239
REMARK   85  A    between atoms: _238  and  _241
REMARK   86  A    between atoms: _241  and  _242
REMARK   87  A    between atoms: _245  and  _247
REMARK   88  A    between atoms: _247  and  _248
REMARK   89  A    between atoms: _247  and  _250
REMARK   90  A    between atoms: _250  and  _251
REMARK   91  A    between atoms: _261  and  _263
REMARK   92  A    between atoms: _263  and  _264
REMARK   93  A    between atoms: _263  and  _266
REMARK   94  A    between atoms: _266  and  _267
REMARK   95  A    between atoms: _272  and  _274
REMARK   96  A    between atoms: _274  and  _275
REMARK   97  A    between atoms: _274  and  _277
REMARK   98  A    between atoms: _277  and  _278
REMARK   99  A    between atoms: _282  and  ZN_376
REMARK  100  A    between atoms: _283  and  _285
REMARK  101  A    between atoms: _285  and  _286
REMARK  102  A    between atoms: _285  and  _288
REMARK  103  A    between atoms: _288  and  _289
REMARK  104  A    between atoms: _292  and  _294
REMARK  105  A    between atoms: _294  and  _295
REMARK  106  A    between atoms: _297  and  _299
REMARK  107  A    between atoms: _299  and  _300
REMARK  108  A    between atoms: _299  and  _302
REMARK  109  A    between atoms: _302  and  _303
REMARK  110  A    between atoms: _306  and  _308
REMARK  111  A    between atoms: _308  and  _309
REMARK  112  A    between atoms: _308  and  _311
REMARK  113  A    between atoms: _311  and  _312
REMARK  114  A    between atoms: _315  and  _317
REMARK  115  A    between atoms: _317  and  _318
REMARK  116  A    between atoms: _321  and  _323
REMARK  117  A    between atoms: _323  and  _324
REMARK  118  A    between atoms: _323  and  _326
REMARK  119  A    between atoms: _326  and  _327
REMARK  120  A    between atoms: _332  and  _333
REMARK  121  A    between atoms: _335  and  _337
REMARK  122  A    between atoms: _337  and  _338
REMARK  123  A    between atoms: _337  and  _340
REMARK  124  A    between atoms: _340  and  _341
REMARK  125  A    between atoms: _341  and  _342
REMARK  126  A    between atoms: _345  and  _347
REMARK  127  A    between atoms: _347  and  _348
REMARK  128  A    between atoms: _347  and  _350
REMARK  129  A    between atoms: _350  and  _351
REMARK  130  A    between atoms: _351  and  _352
REMARK  131  A    between atoms: _352  and  _353
REMARK  132  A    between atoms: _362  and  _364
REMARK  133  A    between atoms: _364  and  _365
REMARK  134  A    between atoms: _367  and  _369
REMARK  135  A    between atoms: _369  and  _370
REMARK  136  A    between atoms: _369  and  _372
REMARK  137  A    between atoms: _372  and  _373
REMARK                            x       y       z     vdW  Elec       q    Type
REMARK                         _______ _______ _______ _____ _____    ______ ____
ROOT
ATOM      1  O   HOH     1      24.667  61.190   9.234  0.00  0.00    +0.000 OA
ENDROOT
TORSDOF 0
REMARK  Name = ../refined-set-2016/2f7o/2f7o_pocket.pdb
REMARK  137 active torsions:
REMARK  status: ('A' for Active; 'I' for Inactive)
REMARK    1  A    between atoms: _1  and  _3
REMARK    2  A    between atoms: _14  and  _17
REMARK    3  A    between atoms: _17  and  _18
REMARK    4  A    between atoms: _25  and  _26
REMARK    5  A    between atoms: _33  and  _34
REMARK    6  A    between atoms: _39  and  _41
REMARK    7  A    between atoms: _41  and  _42
REMARK    8  A    between atoms: _44  and  _46
REMARK    9  A    between atoms: _46  and  _47
REMARK   10  A    between atoms: _46  and  _49
REMARK   11  A    between atoms: _49  and  _50
REMARK   12  A    between atoms: _60  and  _62
REMARK   13  A    between atoms: _62  and  _63
REMARK   14  A    between atoms: _62  and  _65
REMARK   15  A    between atoms: _65  and  _66
REMARK   16  A    between atoms: _69  and  _71
REMARK   17  A    between atoms: _71  and  _72
REMARK   18  A    between atoms: _71  and  _74
REMARK   19  A    between atoms: _74  and  _75
REMARK   20  A    between atoms: _80  and  _81
REMARK   21  A    between atoms: _83  and  _85
REMARK   22  A    between atoms: _85  and  _86
REMARK   23  A    between atoms: _85  and  _88
REMARK   24  A    between atoms: _88  and  _89
REMARK   25  A    between atoms: _89  and  _90
REMARK   26  A    between atoms: _93  and  _95
REMARK   27  A    between atoms: _95  and  _96
REMARK   28  A    between atoms: _95  and  _98
REMARK   29  A    between atoms: _98  and  _99
REMARK   30  A    between atoms: _99  and  _100
REMARK   31  A    between atoms: _102  and  _104
REMARK   32  A    between atoms: _104  and  _105
REMARK   33  A    between atoms: _104  and  _107
REMARK   34  A    between atoms: _107  and  _108
REMARK   35  A    between atoms: _111  and  _113
REMARK   36  A    between atoms: _113  and  _114
REMARK   37  A    between atoms: _113  and  _116
REMARK   38  A    between atoms: _116  and  _117
REMARK   39  A    between atoms: _117  and  _119
REMARK   40  A    between atoms: _119  and  ZN_376
REMARK   41  A    between atoms: _121  and  _122
REMARK   42  A    between atoms: _127  and  _129
REMARK   43  A    between atoms: _129  and  _130
REMARK   44  A    between atoms: _129  and  _132
REMARK   45  A    between atoms: _132  and  _133
REMARK   46  A    between atoms: _139  and  _141
REMARK   47  A    between atoms: _141  and  _142
REMARK   48  A    between atoms: _141  and  _144
REMARK   49  A    between atoms: _144  and  _145
REMARK   50  A    between atoms: _145  and  _146
REMARK   51  A    between atoms: _146  and  _147
REMARK   52  A    between atoms: _156  and  _158
REMARK   53  A    between atoms: _158  and  _159
REMARK   54  A    between atoms: _158  and  _161
REMARK   55  A    between atoms: _161  and  _162
REMARK   56  A    between atoms: _167  and  _168
REMARK   57  A    between atoms: _170  and  _172
REMARK   58  A    between atoms: _172  and  _173
REMARK   59  A    between atoms: _172  and  _175
REMARK   60  A    between atoms: _175  and  _176
REMARK   61  A    between atoms: _178  and  _180
REMARK   62  A    between atoms: _180  and  _181
REMARK   63  A    between atoms: _180  and  _183
REMARK   64  A    between atoms: _183  and  _184
REMARK   65  A    between atoms: _189  and  _190
REMARK   66  A    between atoms: _192  and  _194
REMARK   67  A    between atoms: _194  and  _195
REMARK   68  A    between atoms: _194  and  _197
REMARK   69  A    between atoms: _197  and  _198
REMARK   70  A    between atoms: _201  and  _203
REMARK   71  A    between atoms: _203  and  _204
REMARK   72  A    between atoms: _203  and  _206
REMARK   73  A    between atoms: _206  and  _207
REMARK   74  A    between atoms: _210  and  _212
REMARK   75  A    between atoms: _212  and  _213
REMARK   76  A    between atoms: _212  and  _215
REMARK   77  A    between atoms: _215  and  _216
REMARK   78  A    between atoms: _222  and  _224
REMARK   79  A    between atoms: _224  and  _225
REMARK   80  A    between atoms: _224  and  _227
REMARK   81  A    between atoms: _227  and  _228
REMARK   82  A    between atoms: _233  and  _234
REMARK   83  A    between atoms: _236  and  _238
REMARK   84  A    between atoms: _238  and  _239
REMARK   85  A    between atoms: _238  and  _241
REMARK   86  A    between atoms: _241  and  _242
REMARK   87  A    between atoms: _245  and  _247
REMARK   88  A    between atoms: _247  and  _248
REMARK   89  A    between atoms: _247  and  _250
REMARK   90  A    between atoms: _250  and  _251
REMARK   91  A    between atoms: _261  and  _263
REMARK   92  A    between atoms: _263  and  _264
REMARK   93  A    between atoms: _263  and  _266
REMARK   94  A    between atoms: _266  and  _267
REMARK   95  A    between atoms: _272  and  _274
REMARK   96  A    between atoms: _274  and  _275
REMARK   97  A    between atoms: _274  and  _277
REMARK   98  A    between atoms: _277  and  _278
REMARK   99  A    between atoms: _282  and  ZN_376
REMARK  100  A    between atoms: _283  and  _285
REMARK  101  A    between atoms: _285  and  _286
REMARK  102  A    between atoms: _285  and  _288
REMARK  103  A    between atoms: _288  and  _289
REMARK  104  A    between atoms: _292  and  _294
REMARK  105  A    between atoms: _294  and  _295
REMARK  106  A    between atoms: _297  and  _299
REMARK  107  A    between atoms: _299  and  _300
REMARK  108  A    between atoms: _299  and  _302
REMARK  109  A    between atoms: _302  and  _303
REMARK  110  A    between atoms: _306  and  _308
REMARK  111  A    between atoms: _308  and  _309
REMARK  112  A    between atoms: _308  and  _311
REMARK  113  A    between atoms: _311  and  _312
REMARK  114  A    between atoms: _315  and  _317
REMARK  115  A    between atoms: _317  and  _318
REMARK  116  A    between atoms: _321  and  _323
REMARK  117  A    between atoms: _323  and  _324
REMARK  118  A    between atoms: _323  and  _326
REMARK  119  A    between atoms: _326  and  _327
REMARK  120  A    between atoms: _332  and  _333
REMARK  121  A    between atoms: _335  and  _337
REMARK  122  A    between atoms: _337  and  _338
REMARK  123  A    between atoms: _337  and  _340
REMARK  124  A    between atoms: _340  and  _341
REMARK  125  A    between atoms: _341  and  _342
REMARK  126  A    between atoms: _345  and  _347
REMARK  127  A    between atoms: _347  and  _348
REMARK  128  A    between atoms: _347  and  _350
REMARK  129  A    between atoms: _350  and  _351
REMARK  130  A    between atoms: _351  and  _352
REMARK  131  A    between atoms: _352  and  _353
REMARK  132  A    between atoms: _362  and  _364
REMARK  133  A    between atoms: _364  and  _365
REMARK  134  A    between atoms: _367  and  _369
REMARK  135  A    between atoms: _369  and  _370
REMARK  136  A    between atoms: _369  and  _372
REMARK  137  A    between atoms: _372  and  _373
REMARK                            x       y       z     vdW  Elec       q    Type
REMARK                         _______ _______ _______ _____ _____    ______ ____
ROOT
ATOM      1  O   HOH     1      27.187  60.848  10.486  0.00  0.00    +0.000 OA
ENDROOT
TORSDOF 0
REMARK  Name = ../refined-set-2016/2f7o/2f7o_pocket.pdb
REMARK  137 active torsions:
REMARK  status: ('A' for Active; 'I' for Inactive)
REMARK    1  A    between atoms: _1  and  _3
REMARK    2  A    between atoms: _14  and  _17
REMARK    3  A    between atoms: _17  and  _18
REMARK    4  A    between atoms: _25  and  _26
REMARK    5  A    between atoms: _33  and  _34
REMARK    6  A    between atoms: _39  and  _41
REMARK    7  A    between atoms: _41  and  _42
REMARK    8  A    between atoms: _44  and  _46
REMARK    9  A    between atoms: _46  and  _47
REMARK   10  A    between atoms: _46  and  _49
REMARK   11  A    between atoms: _49  and  _50
REMARK   12  A    between atoms: _60  and  _62
REMARK   13  A    between atoms: _62  and  _63
REMARK   14  A    between atoms: _62  and  _65
REMARK   15  A    between atoms: _65  and  _66
REMARK   16  A    between atoms: _69  and  _71
REMARK   17  A    between atoms: _71  and  _72
REMARK   18  A    between atoms: _71  and  _74
REMARK   19  A    between atoms: _74  and  _75
REMARK   20  A    between atoms: _80  and  _81
REMARK   21  A    between atoms: _83  and  _85
REMARK   22  A    between atoms: _85  and  _86
REMARK   23  A    between atoms: _85  and  _88
REMARK   24  A    between atoms: _88  and  _89
REMARK   25  A    between atoms: _89  and  _90
REMARK   26  A    between atoms: _93  and  _95
REMARK   27  A    between atoms: _95  and  _96
REMARK   28  A    between atoms: _95  and  _98
REMARK   29  A    between atoms: _98  and  _99
REMARK   30  A    between atoms: _99  and  _100
REMARK   31  A    between atoms: _102  and  _104
REMARK   32  A    between atoms: _104  and  _105
REMARK   33  A    between atoms: _104  and  _107
REMARK   34  A    between atoms: _107  and  _108
REMARK   35  A    between atoms: _111  and  _113
REMARK   36  A    between atoms: _113  and  _114
REMARK   37  A    between atoms: _113  and  _116
REMARK   38  A    between atoms: _116  and  _117
REMARK   39  A    between atoms: _117  and  _119
REMARK   40  A    between atoms: _119  and  ZN_376
REMARK   41  A    between atoms: _121  and  _122
REMARK   42  A    between atoms: _127  and  _129
REMARK   43  A    between atoms: _129  and  _130
REMARK   44  A    between atoms: _129  and  _132
REMARK   45  A    between atoms: _132  and  _133
REMARK   46  A    between atoms: _139  and  _141
REMARK   47  A    between atoms: _141  and  _142
REMARK   48  A    between atoms: _141  and  _144
REMARK   49  A    between atoms: _144  and  _145
REMARK   50  A    between atoms: _145  and  _146
REMARK   51  A    between atoms: _146  and  _147
REMARK   52  A    between atoms: _156  and  _158
REMARK   53  A    between atoms: _158  and  _159
REMARK   54  A    between atoms: _158  and  _161
REMARK   55  A    between atoms: _161  and  _162
REMARK   56  A    between atoms: _167  and  _168
REMARK   57  A    between atoms: _170  and  _172
REMARK   58  A    between atoms: _172  and  _173
REMARK   59  A    between atoms: _172  and  _175
REMARK   60  A    between atoms: _175  and  _176
REMARK   61  A    between atoms: _178  and  _180
REMARK   62  A    between atoms: _180  and  _181
REMARK   63  A    between atoms: _180  and  _183
REMARK   64  A    between atoms: _183  and  _184
REMARK   65  A    between atoms: _189  and  _190
REMARK   66  A    between atoms: _192  and  _194
REMARK   67  A    between atoms: _194  and  _195
REMARK   68  A    between atoms: _194  and  _197
REMARK   69  A    between atoms: _197  and  _198
REMARK   70  A    between atoms: _201  and  _203
REMARK   71  A    between atoms: _203  and  _204
REMARK   72  A    between atoms: _203  and  _206
REMARK   73  A    between atoms: _206  and  _207
REMARK   74  A    between atoms: _210  and  _212
REMARK   75  A    between atoms: _212  and  _213
REMARK   76  A    between atoms: _212  and  _215
REMARK   77  A    between atoms: _215  and  _216
REMARK   78  A    between atoms: _222  and  _224
REMARK   79  A    between atoms: _224  and  _225
REMARK   80  A    between atoms: _224  and  _227
REMARK   81  A    between atoms: _227  and  _228
REMARK   82  A    between atoms: _233  and  _234
REMARK   83  A    between atoms: _236  and  _238
REMARK   84  A    between atoms: _238  and  _239
REMARK   85  A    between atoms: _238  and  _241
REMARK   86  A    between atoms: _241  and  _242
REMARK   87  A    between atoms: _245  and  _247
REMARK   88  A    between atoms: _247  and  _248
REMARK   89  A    between atoms: _247  and  _250
REMARK   90  A    between atoms: _250  and  _251
REMARK   91  A    between atoms: _261  and  _263
REMARK   92  A    between atoms: _263  and  _264
REMARK   93  A    between atoms: _263  and  _266
REMARK   94  A    between atoms: _266  and  _267
REMARK   95  A    between atoms: _272  and  _274
REMARK   96  A    between atoms: _274  and  _275
REMARK   97  A    between atoms: _274  and  _277
REMARK   98  A    between atoms: _277  and  _278
REMARK   99  A    between atoms: _282  and  ZN_376
REMARK  100  A    between atoms: _283  and  _285
REMARK  101  A    between atoms: _285  and  _286
REMARK  102  A    between atoms: _285  and  _288
REMARK  103  A    between atoms: _288  and  _289
REMARK  104  A    between atoms: _292  and  _294
REMARK  105  A    between atoms: _294  and  _295
REMARK  106  A    between atoms: _297  and  _299
REMARK  107  A    between atoms: _299  and  _300
REMARK  108  A    between atoms: _299  and  _302
REMARK  109  A    between atoms: _302  and  _303
REMARK  110  A    between atoms: _306  and  _308
REMARK  111  A    between atoms: _308  and  _309
REMARK  112  A    between atoms: _308  and  _311
REMARK  113  A    between atoms: _311  and  _312
REMARK  114  A    between atoms: _315  and  _317
REMARK  115  A    between atoms: _317  and  _318
REMARK  116  A    between atoms: _321  and  _323
REMARK  117  A    between atoms: _323  and  _324
REMARK  118  A    between atoms: _323  and  _326
REMARK  119  A    between atoms: _326  and  _327
REMARK  120  A    between atoms: _332  and  _333
REMARK  121  A    between atoms: _335  and  _337
REMARK  122  A    between atoms: _337  and  _338
REMARK  123  A    between atoms: _337  and  _340
REMARK  124  A    between atoms: _340  and  _341
REMARK  125  A    between atoms: _341  and  _342
REMARK  126  A    between atoms: _345  and  _347
REMARK  127  A    between atoms: _347  and  _348
REMARK  128  A    between atoms: _347  and  _350
REMARK  129  A    between atoms: _350  and  _351
REMARK  130  A    between atoms: _351  and  _352
REMARK  131  A    between atoms: _352  and  _353
REMARK  132  A    between atoms: _362  and  _364
REMARK  133  A    between atoms: _364  and  _365
REMARK  134  A    between atoms: _367  and  _369
REMARK  135  A    between atoms: _369  and  _370
REMARK  136  A    between atoms: _369  and  _372
REMARK  137  A    between atoms: _372  and  _373
REMARK                            x       y       z     vdW  Elec       q    Type
REMARK                         _______ _______ _______ _____ _____    ______ ____
ROOT
ATOM      1  O   HOH     1      27.108  59.075   8.639  0.00  0.00    +0.000 OA
ENDROOT
TORSDOF 0
REMARK  Name = ../refined-set-2016/2f7o/2f7o_pocket.pdb
REMARK  137 active torsions:
REMARK  status: ('A' for Active; 'I' for Inactive)
REMARK    1  A    between atoms: _1  and  _3
REMARK    2  A    between atoms: _14  and  _17
REMARK    3  A    between atoms: _17  and  _18
REMARK    4  A    between atoms: _25  and  _26
REMARK    5  A    between atoms: _33  and  _34
REMARK    6  A    between atoms: _39  and  _41
REMARK    7  A    between atoms: _41  and  _42
REMARK    8  A    between atoms: _44  and  _46
REMARK    9  A    between atoms: _46  and  _47
REMARK   10  A    between atoms: _46  and  _49
REMARK   11  A    between atoms: _49  and  _50
REMARK   12  A    between atoms: _60  and  _62
REMARK   13  A    between atoms: _62  and  _63
REMARK   14  A    between atoms: _62  and  _65
REMARK   15  A    between atoms: _65  and  _66
REMARK   16  A    between atoms: _69  and  _71
REMARK   17  A    between atoms: _71  and  _72
REMARK   18  A    between atoms: _71  and  _74
REMARK   19  A    between atoms: _74  and  _75
REMARK   20  A    between atoms: _80  and  _81
REMARK   21  A    between atoms: _83  and  _85
REMARK   22  A    between atoms: _85  and  _86
REMARK   23  A    between atoms: _85  and  _88
REMARK   24  A    between atoms: _88  and  _89
REMARK   25  A    between atoms: _89  and  _90
REMARK   26  A    between atoms: _93  and  _95
REMARK   27  A    between atoms: _95  and  _96
REMARK   28  A    between atoms: _95  and  _98
REMARK   29  A    between atoms: _98  and  _99
REMARK   30  A    between atoms: _99  and  _100
REMARK   31  A    between atoms: _102  and  _104
REMARK   32  A    between atoms: _104  and  _105
REMARK   33  A    between atoms: _104  and  _107
REMARK   34  A    between atoms: _107  and  _108
REMARK   35  A    between atoms: _111  and  _113
REMARK   36  A    between atoms: _113  and  _114
REMARK   37  A    between atoms: _113  and  _116
REMARK   38  A    between atoms: _116  and  _117
REMARK   39  A    between atoms: _117  and  _119
REMARK   40  A    between atoms: _119  and  ZN_376
REMARK   41  A    between atoms: _121  and  _122
REMARK   42  A    between atoms: _127  and  _129
REMARK   43  A    between atoms: _129  and  _130
REMARK   44  A    between atoms: _129  and  _132
REMARK   45  A    between atoms: _132  and  _133
REMARK   46  A    between atoms: _139  and  _141
REMARK   47  A    between atoms: _141  and  _142
REMARK   48  A    between atoms: _141  and  _144
REMARK   49  A    between atoms: _144  and  _145
REMARK   50  A    between atoms: _145  and  _146
REMARK   51  A    between atoms: _146  and  _147
REMARK   52  A    between atoms: _156  and  _158
REMARK   53  A    between atoms: _158  and  _159
REMARK   54  A    between atoms: _158  and  _161
REMARK   55  A    between atoms: _161  and  _162
REMARK   56  A    between atoms: _167  and  _168
REMARK   57  A    between atoms: _170  and  _172
REMARK   58  A    between atoms: _172  and  _173
REMARK   59  A    between atoms: _172  and  _175
REMARK   60  A    between atoms: _175  and  _176
REMARK   61  A    between atoms: _178  and  _180
REMARK   62  A    between atoms: _180  and  _181
REMARK   63  A    between atoms: _180  and  _183
REMARK   64  A    between atoms: _183  and  _184
REMARK   65  A    between atoms: _189  and  _190
REMARK   66  A    between atoms: _192  and  _194
REMARK   67  A    between atoms: _194  and  _195
REMARK   68  A    between atoms: _194  and  _197
REMARK   69  A    between atoms: _197  and  _198
REMARK   70  A    between atoms: _201  and  _203
REMARK   71  A    between atoms: _203  and  _204
REMARK   72  A    between atoms: _203  and  _206
REMARK   73  A    between atoms: _206  and  _207
REMARK   74  A    between atoms: _210  and  _212
REMARK   75  A    between atoms: _212  and  _213
REMARK   76  A    between atoms: _212  and  _215
REMARK   77  A    between atoms: _215  and  _216
REMARK   78  A    between atoms: _222  and  _224
REMARK   79  A    between atoms: _224  and  _225
REMARK   80  A    between atoms: _224  and  _227
REMARK   81  A    between atoms: _227  and  _228
REMARK   82  A    between atoms: _233  and  _234
REMARK   83  A    between atoms: _236  and  _238
REMARK   84  A    between atoms: _238  and  _239
REMARK   85  A    between atoms: _238  and  _241
REMARK   86  A    between atoms: _241  and  _242
REMARK   87  A    between atoms: _245  and  _247
REMARK   88  A    between atoms: _247  and  _248
REMARK   89  A    between atoms: _247  and  _250
REMARK   90  A    between atoms: _250  and  _251
REMARK   91  A    between atoms: _261  and  _263
REMARK   92  A    between atoms: _263  and  _264
REMARK   93  A    between atoms: _263  and  _266
REMARK   94  A    between atoms: _266  and  _267
REMARK   95  A    between atoms: _272  and  _274
REMARK   96  A    between atoms: _274  and  _275
REMARK   97  A    between atoms: _274  and  _277
REMARK   98  A    between atoms: _277  and  _278
REMARK   99  A    between atoms: _282  and  ZN_376
REMARK  100  A    between atoms: _283  and  _285
REMARK  101  A    between atoms: _285  and  _286
REMARK  102  A    between atoms: _285  and  _288
REMARK  103  A    between atoms: _288  and  _289
REMARK  104  A    between atoms: _292  and  _294
REMARK  105  A    between atoms: _294  and  _295
REMARK  106  A    between atoms: _297  and  _299
REMARK  107  A    between atoms: _299  and  _300
REMARK  108  A    between atoms: _299  and  _302
REMARK  109  A    between atoms: _302  and  _303
REMARK  110  A    between atoms: _306  and  _308
REMARK  111  A    between atoms: _308  and  _309
REMARK  112  A    between atoms: _308  and  _311
REMARK  113  A    between atoms: _311  and  _312
REMARK  114  A    between atoms: _315  and  _317
REMARK  115  A    between atoms: _317  and  _318
REMARK  116  A    between atoms: _321  and  _323
REMARK  117  A    between atoms: _323  and  _324
REMARK  118  A    between atoms: _323  and  _326
REMARK  119  A    between atoms: _326  and  _327
REMARK  120  A    between atoms: _332  and  _333
REMARK  121  A    between atoms: _335  and  _337
REMARK  122  A    between atoms: _337  and  _338
REMARK  123  A    between atoms: _337  and  _340
REMARK  124  A    between atoms: _340  and  _341
REMARK  125  A    between atoms: _341  and  _342
REMARK  126  A    between atoms: _345  and  _347
REMARK  127  A    between atoms: _347  and  _348
REMARK  128  A    between atoms: _347  and  _350
REMARK  129  A    between atoms: _350  and  _351
REMARK  130  A    between atoms: _351  and  _352
REMARK  131  A    between atoms: _352  and  _353
REMARK  132  A    between atoms: _362  and  _364
REMARK  133  A    between atoms: _364  and  _365
REMARK  134  A    between atoms: _367  and  _369
REMARK  135  A    between atoms: _369  and  _370
REMARK  136  A    between atoms: _369  and  _372
REMARK  137  A    between atoms: _372  and  _373
REMARK                            x       y       z     vdW  Elec       q    Type
REMARK                         _______ _______ _______ _____ _____    ______ ____
ROOT
ATOM      1  O   HOH     1      29.589  71.940  12.867  0.00  0.00    +0.000 OA
ENDROOT
TORSDOF 0
REMARK  Name = ../refined-set-2016/2f7o/2f7o_pocket.pdb
REMARK  137 active torsions:
REMARK  status: ('A' for Active; 'I' for Inactive)
REMARK    1  A    between atoms: _1  and  _3
REMARK    2  A    between atoms: _14  and  _17
REMARK    3  A    between atoms: _17  and  _18
REMARK    4  A    between atoms: _25  and  _26
REMARK    5  A    between atoms: _33  and  _34
REMARK    6  A    between atoms: _39  and  _41
REMARK    7  A    between atoms: _41  and  _42
REMARK    8  A    between atoms: _44  and  _46
REMARK    9  A    between atoms: _46  and  _47
REMARK   10  A    between atoms: _46  and  _49
REMARK   11  A    between atoms: _49  and  _50
REMARK   12  A    between atoms: _60  and  _62
REMARK   13  A    between atoms: _62  and  _63
REMARK   14  A    between atoms: _62  and  _65
REMARK   15  A    between atoms: _65  and  _66
REMARK   16  A    between atoms: _69  and  _71
REMARK   17  A    between atoms: _71  and  _72
REMARK   18  A    between atoms: _71  and  _74
REMARK   19  A    between atoms: _74  and  _75
REMARK   20  A    between atoms: _80  and  _81
REMARK   21  A    between atoms: _83  and  _85
REMARK   22  A    between atoms: _85  and  _86
REMARK   23  A    between atoms: _85  and  _88
REMARK   24  A    between atoms: _88  and  _89
REMARK   25  A    between atoms: _89  and  _90
REMARK   26  A    between atoms: _93  and  _95
REMARK   27  A    between atoms: _95  and  _96
REMARK   28  A    between atoms: _95  and  _98
REMARK   29  A    between atoms: _98  and  _99
REMARK   30  A    between atoms: _99  and  _100
REMARK   31  A    between atoms: _102  and  _104
REMARK   32  A    between atoms: _104  and  _105
REMARK   33  A    between atoms: _104  and  _107
REMARK   34  A    between atoms: _107  and  _108
REMARK   35  A    between atoms: _111  and  _113
REMARK   36  A    between atoms: _113  and  _114
REMARK   37  A    between atoms: _113  and  _116
REMARK   38  A    between atoms: _116  and  _117
REMARK   39  A    between atoms: _117  and  _119
REMARK   40  A    between atoms: _119  and  ZN_376
REMARK   41  A    between atoms: _121  and  _122
REMARK   42  A    between atoms: _127  and  _129
REMARK   43  A    between atoms: _129  and  _130
REMARK   44  A    between atoms: _129  and  _132
REMARK   45  A    between atoms: _132  and  _133
REMARK   46  A    between atoms: _139  and  _141
REMARK   47  A    between atoms: _141  and  _142
REMARK   48  A    between atoms: _141  and  _144
REMARK   49  A    between atoms: _144  and  _145
REMARK   50  A    between atoms: _145  and  _146
REMARK   51  A    between atoms: _146  and  _147
REMARK   52  A    between atoms: _156  and  _158
REMARK   53  A    between atoms: _158  and  _159
REMARK   54  A    between atoms: _158  and  _161
REMARK   55  A    between atoms: _161  and  _162
REMARK   56  A    between atoms: _167  and  _168
REMARK   57  A    between atoms: _170  and  _172
REMARK   58  A    between atoms: _172  and  _173
REMARK   59  A    between atoms: _172  and  _175
REMARK   60  A    between atoms: _175  and  _176
REMARK   61  A    between atoms: _178  and  _180
REMARK   62  A    between atoms: _180  and  _181
REMARK   63  A    between atoms: _180  and  _183
REMARK   64  A    between atoms: _183  and  _184
REMARK   65  A    between atoms: _189  and  _190
REMARK   66  A    between atoms: _192  and  _194
REMARK   67  A    between atoms: _194  and  _195
REMARK   68  A    between atoms: _194  and  _197
REMARK   69  A    between atoms: _197  and  _198
REMARK   70  A    between atoms: _201  and  _203
REMARK   71  A    between atoms: _203  and  _204
REMARK   72  A    between atoms: _203  and  _206
REMARK   73  A    between atoms: _206  and  _207
REMARK   74  A    between atoms: _210  and  _212
REMARK   75  A    between atoms: _212  and  _213
REMARK   76  A    between atoms: _212  and  _215
REMARK   77  A    between atoms: _215  and  _216
REMARK   78  A    between atoms: _222  and  _224
REMARK   79  A    between atoms: _224  and  _225
REMARK   80  A    between atoms: _224  and  _227
REMARK   81  A    between atoms: _227  and  _228
REMARK   82  A    between atoms: _233  and  _234
REMARK   83  A    between atoms: _236  and  _238
REMARK   84  A    between atoms: _238  and  _239
REMARK   85  A    between atoms: _238  and  _241
REMARK   86  A    between atoms: _241  and  _242
REMARK   87  A    between atoms: _245  and  _247
REMARK   88  A    between atoms: _247  and  _248
REMARK   89  A    between atoms: _247  and  _250
REMARK   90  A    between atoms: _250  and  _251
REMARK   91  A    between atoms: _261  and  _263
REMARK   92  A    between atoms: _263  and  _264
REMARK   93  A    between atoms: _263  and  _266
REMARK   94  A    between atoms: _266  and  _267
REMARK   95  A    between atoms: _272  and  _274
REMARK   96  A    between atoms: _274  and  _275
REMARK   97  A    between atoms: _274  and  _277
REMARK   98  A    between atoms: _277  and  _278
REMARK   99  A    between atoms: _282  and  ZN_376
REMARK  100  A    between atoms: _283  and  _285
REMARK  101  A    between atoms: _285  and  _286
REMARK  102  A    between atoms: _285  and  _288
REMARK  103  A    between atoms: _288  and  _289
REMARK  104  A    between atoms: _292  and  _294
REMARK  105  A    between atoms: _294  and  _295
REMARK  106  A    between atoms: _297  and  _299
REMARK  107  A    between atoms: _299  and  _300
REMARK  108  A    between atoms: _299  and  _302
REMARK  109  A    between atoms: _302  and  _303
REMARK  110  A    between atoms: _306  and  _308
REMARK  111  A    between atoms: _308  and  _309
REMARK  112  A    between atoms: _308  and  _311
REMARK  113  A    between atoms: _311  and  _312
REMARK  114  A    between atoms: _315  and  _317
REMARK  115  A    between atoms: _317  and  _318
REMARK  116  A    between atoms: _321  and  _323
REMARK  117  A    between atoms: _323  and  _324
REMARK  118  A    between atoms: _323  and  _326
REMARK  119  A    between atoms: _326  and  _327
REMARK  120  A    between atoms: _332  and  _333
REMARK  121  A    between atoms: _335  and  _337
REMARK  122  A    between atoms: _337  and  _338
REMARK  123  A    between atoms: _337  and  _340
REMARK  124  A    between atoms: _340  and  _341
REMARK  125  A    between atoms: _341  and  _342
REMARK  126  A    between atoms: _345  and  _347
REMARK  127  A    between atoms: _347  and  _348
REMARK  128  A    between atoms: _347  and  _350
REMARK  129  A    between atoms: _350  and  _351
REMARK  130  A    between atoms: _351  and  _352
REMARK  131  A    between atoms: _352  and  _353
REMARK  132  A    between atoms: _362  and  _364
REMARK  133  A    between atoms: _364  and  _365
REMARK  134  A    between atoms: _367  and  _369
REMARK  135  A    between atoms: _369  and  _370
REMARK  136  A    between atoms: _369  and  _372
REMARK  137  A    between atoms: _372  and  _373
REMARK                            x       y       z     vdW  Elec       q    Type
REMARK                         _______ _______ _______ _____ _____    ______ ____
ROOT
ATOM      1  O   HOH     1      31.819  71.357  14.070  0.00  0.00    +0.000 OA
ENDROOT
TORSDOF 0
REMARK  Name = ../refined-set-2016/2f7o/2f7o_pocket.pdb
REMARK  137 active torsions:
REMARK  status: ('A' for Active; 'I' for Inactive)
REMARK    1  A    between atoms: _1  and  _3
REMARK    2  A    between atoms: _14  and  _17
REMARK    3  A    between atoms: _17  and  _18
REMARK    4  A    between atoms: _25  and  _26
REMARK    5  A    between atoms: _33  and  _34
REMARK    6  A    between atoms: _39  and  _41
REMARK    7  A    between atoms: _41  and  _42
REMARK    8  A    between atoms: _44  and  _46
REMARK    9  A    between atoms: _46  and  _47
REMARK   10  A    between atoms: _46  and  _49
REMARK   11  A    between atoms: _49  and  _50
REMARK   12  A    between atoms: _60  and  _62
REMARK   13  A    between atoms: _62  and  _63
REMARK   14  A    between atoms: _62  and  _65
REMARK   15  A    between atoms: _65  and  _66
REMARK   16  A    between atoms: _69  and  _71
REMARK   17  A    between atoms: _71  and  _72
REMARK   18  A    between atoms: _71  and  _74
REMARK   19  A    between atoms: _74  and  _75
REMARK   20  A    between atoms: _80  and  _81
REMARK   21  A    between atoms: _83  and  _85
REMARK   22  A    between atoms: _85  and  _86
REMARK   23  A    between atoms: _85  and  _88
REMARK   24  A    between atoms: _88  and  _89
REMARK   25  A    between atoms: _89  and  _90
REMARK   26  A    between atoms: _93  and  _95
REMARK   27  A    between atoms: _95  and  _96
REMARK   28  A    between atoms: _95  and  _98
REMARK   29  A    between atoms: _98  and  _99
REMARK   30  A    between atoms: _99  and  _100
REMARK   31  A    between atoms: _102  and  _104
REMARK   32  A    between atoms: _104  and  _105
REMARK   33  A    between atoms: _104  and  _107
REMARK   34  A    between atoms: _107  and  _108
REMARK   35  A    between atoms: _111  and  _113
REMARK   36  A    between atoms: _113  and  _114
REMARK   37  A    between atoms: _113  and  _116
REMARK   38  A    between atoms: _116  and  _117
REMARK   39  A    between atoms: _117  and  _119
REMARK   40  A    between atoms: _119  and  ZN_376
REMARK   41  A    between atoms: _121  and  _122
REMARK   42  A    between atoms: _127  and  _129
REMARK   43  A    between atoms: _129  and  _130
REMARK   44  A    between atoms: _129  and  _132
REMARK   45  A    between atoms: _132  and  _133
REMARK   46  A    between atoms: _139  and  _141
REMARK   47  A    between atoms: _141  and  _142
REMARK   48  A    between atoms: _141  and  _144
REMARK   49  A    between atoms: _144  and  _145
REMARK   50  A    between atoms: _145  and  _146
REMARK   51  A    between atoms: _146  and  _147
REMARK   52  A    between atoms: _156  and  _158
REMARK   53  A    between atoms: _158  and  _159
REMARK   54  A    between atoms: _158  and  _161
REMARK   55  A    between atoms: _161  and  _162
REMARK   56  A    between atoms: _167  and  _168
REMARK   57  A    between atoms: _170  and  _172
REMARK   58  A    between atoms: _172  and  _173
REMARK   59  A    between atoms: _172  and  _175
REMARK   60  A    between atoms: _175  and  _176
REMARK   61  A    between atoms: _178  and  _180
REMARK   62  A    between atoms: _180  and  _181
REMARK   63  A    between atoms: _180  and  _183
REMARK   64  A    between atoms: _183  and  _184
REMARK   65  A    between atoms: _189  and  _190
REMARK   66  A    between atoms: _192  and  _194
REMARK   67  A    between atoms: _194  and  _195
REMARK   68  A    between atoms: _194  and  _197
REMARK   69  A    between atoms: _197  and  _198
REMARK   70  A    between atoms: _201  and  _203
REMARK   71  A    between atoms: _203  and  _204
REMARK   72  A    between atoms: _203  and  _206
REMARK   73  A    between atoms: _206  and  _207
REMARK   74  A    between atoms: _210  and  _212
REMARK   75  A    between atoms: _212  and  _213
REMARK   76  A    between atoms: _212  and  _215
REMARK   77  A    between atoms: _215  and  _216
REMARK   78  A    between atoms: _222  and  _224
REMARK   79  A    between atoms: _224  and  _225
REMARK   80  A    between atoms: _224  and  _227
REMARK   81  A    between atoms: _227  and  _228
REMARK   82  A    between atoms: _233  and  _234
REMARK   83  A    between atoms: _236  and  _238
REMARK   84  A    between atoms: _238  and  _239
REMARK   85  A    between atoms: _238  and  _241
REMARK   86  A    between atoms: _241  and  _242
REMARK   87  A    between atoms: _245  and  _247
REMARK   88  A    between atoms: _247  and  _248
REMARK   89  A    between atoms: _247  and  _250
REMARK   90  A    between atoms: _250  and  _251
REMARK   91  A    between atoms: _261  and  _263
REMARK   92  A    between atoms: _263  and  _264
REMARK   93  A    between atoms: _263  and  _266
REMARK   94  A    between atoms: _266  and  _267
REMARK   95  A    between atoms: _272  and  _274
REMARK   96  A    between atoms: _274  and  _275
REMARK   97  A    between atoms: _274  and  _277
REMARK   98  A    between atoms: _277  and  _278
REMARK   99  A    between atoms: _282  and  ZN_376
REMARK  100  A    between atoms: _283  and  _285
REMARK  101  A    between atoms: _285  and  _286
REMARK  102  A    between atoms: _285  and  _288
REMARK  103  A    between atoms: _288  and  _289
REMARK  104  A    between atoms: _292  and  _294
REMARK  105  A    between atoms: _294  and  _295
REMARK  106  A    between atoms: _297  and  _299
REMARK  107  A    between atoms: _299  and  _300
REMARK  108  A    between atoms: _299  and  _302
REMARK  109  A    between atoms: _302  and  _303
REMARK  110  A    between atoms: _306  and  _308
REMARK  111  A    between atoms: _308  and  _309
REMARK  112  A    between atoms: _308  and  _311
REMARK  113  A    between atoms: _311  and  _312
REMARK  114  A    between atoms: _315  and  _317
REMARK  115  A    between atoms: _317  and  _318
REMARK  116  A    between atoms: _321  and  _323
REMARK  117  A    between atoms: _323  and  _324
REMARK  118  A    between atoms: _323  and  _326
REMARK  119  A    between atoms: _326  and  _327
REMARK  120  A    between atoms: _332  and  _333
REMARK  121  A    between atoms: _335  and  _337
REMARK  122  A    between atoms: _337  and  _338
REMARK  123  A    between atoms: _337  and  _340
REMARK  124  A    between atoms: _340  and  _341
REMARK  125  A    between atoms: _341  and  _342
REMARK  126  A    between atoms: _345  and  _347
REMARK  127  A    between atoms: _347  and  _348
REMARK  128  A    between atoms: _347  and  _350
REMARK  129  A    between atoms: _350  and  _351
REMARK  130  A    between atoms: _351  and  _352
REMARK  131  A    between atoms: _352  and  _353
REMARK  132  A    between atoms: _362  and  _364
REMARK  133  A    between atoms: _364  and  _365
REMARK  134  A    between atoms: _367  and  _369
REMARK  135  A    between atoms: _369  and  _370
REMARK  136  A    between atoms: _369  and  _372
REMARK  137  A    between atoms: _372  and  _373
REMARK                            x       y       z     vdW  Elec       q    Type
REMARK                         _______ _______ _______ _____ _____    ______ ____
ROOT
ATOM      1  O   HOH     1      30.128  69.206  15.515  0.00  0.00    +0.000 OA
ENDROOT
TORSDOF 0
REMARK  Name = ../refined-set-2016/2f7o/2f7o_pocket.pdb
REMARK  137 active torsions:
REMARK  status: ('A' for Active; 'I' for Inactive)
REMARK    1  A    between atoms: _1  and  _3
REMARK    2  A    between atoms: _14  and  _17
REMARK    3  A    between atoms: _17  and  _18
REMARK    4  A    between atoms: _25  and  _26
REMARK    5  A    between atoms: _33  and  _34
REMARK    6  A    between atoms: _39  and  _41
REMARK    7  A    between atoms: _41  and  _42
REMARK    8  A    between atoms: _44  and  _46
REMARK    9  A    between atoms: _46  and  _47
REMARK   10  A    between atoms: _46  and  _49
REMARK   11  A    between atoms: _49  and  _50
REMARK   12  A    between atoms: _60  and  _62
REMARK   13  A    between atoms: _62  and  _63
REMARK   14  A    between atoms: _62  and  _65
REMARK   15  A    between atoms: _65  and  _66
REMARK   16  A    between atoms: _69  and  _71
REMARK   17  A    between atoms: _71  and  _72
REMARK   18  A    between atoms: _71  and  _74
REMARK   19  A    between atoms: _74  and  _75
REMARK   20  A    between atoms: _80  and  _81
REMARK   21  A    between atoms: _83  and  _85
REMARK   22  A    between atoms: _85  and  _86
REMARK   23  A    between atoms: _85  and  _88
REMARK   24  A    between atoms: _88  and  _89
REMARK   25  A    between atoms: _89  and  _90
REMARK   26  A    between atoms: _93  and  _95
REMARK   27  A    between atoms: _95  and  _96
REMARK   28  A    between atoms: _95  and  _98
REMARK   29  A    between atoms: _98  and  _99
REMARK   30  A    between atoms: _99  and  _100
REMARK   31  A    between atoms: _102  and  _104
REMARK   32  A    between atoms: _104  and  _105
REMARK   33  A    between atoms: _104  and  _107
REMARK   34  A    between atoms: _107  and  _108
REMARK   35  A    between atoms: _111  and  _113
REMARK   36  A    between atoms: _113  and  _114
REMARK   37  A    between atoms: _113  and  _116
REMARK   38  A    between atoms: _116  and  _117
REMARK   39  A    between atoms: _117  and  _119
REMARK   40  A    between atoms: _119  and  ZN_376
REMARK   41  A    between atoms: _121  and  _122
REMARK   42  A    between atoms: _127  and  _129
REMARK   43  A    between atoms: _129  and  _130
REMARK   44  A    between atoms: _129  and  _132
REMARK   45  A    between atoms: _132  and  _133
REMARK   46  A    between atoms: _139  and  _141
REMARK   47  A    between atoms: _141  and  _142
REMARK   48  A    between atoms: _141  and  _144
REMARK   49  A    between atoms: _144  and  _145
REMARK   50  A    between atoms: _145  and  _146
REMARK   51  A    between atoms: _146  and  _147
REMARK   52  A    between atoms: _156  and  _158
REMARK   53  A    between atoms: _158  and  _159
REMARK   54  A    between atoms: _158  and  _161
REMARK   55  A    between atoms: _161  and  _162
REMARK   56  A    between atoms: _167  and  _168
REMARK   57  A    between atoms: _170  and  _172
REMARK   58  A    between atoms: _172  and  _173
REMARK   59  A    between atoms: _172  and  _175
REMARK   60  A    between atoms: _175  and  _176
REMARK   61  A    between atoms: _178  and  _180
REMARK   62  A    between atoms: _180  and  _181
REMARK   63  A    between atoms: _180  and  _183
REMARK   64  A    between atoms: _183  and  _184
REMARK   65  A    between atoms: _189  and  _190
REMARK   66  A    between atoms: _192  and  _194
REMARK   67  A    between atoms: _194  and  _195
REMARK   68  A    between atoms: _194  and  _197
REMARK   69  A    between atoms: _197  and  _198
REMARK   70  A    between atoms: _201  and  _203
REMARK   71  A    between atoms: _203  and  _204
REMARK   72  A    between atoms: _203  and  _206
REMARK   73  A    between atoms: _206  and  _207
REMARK   74  A    between atoms: _210  and  _212
REMARK   75  A    between atoms: _212  and  _213
REMARK   76  A    between atoms: _212  and  _215
REMARK   77  A    between atoms: _215  and  _216
REMARK   78  A    between atoms: _222  and  _224
REMARK   79  A    between atoms: _224  and  _225
REMARK   80  A    between atoms: _224  and  _227
REMARK   81  A    between atoms: _227  and  _228
REMARK   82  A    between atoms: _233  and  _234
REMARK   83  A    between atoms: _236  and  _238
REMARK   84  A    between atoms: _238  and  _239
REMARK   85  A    between atoms: _238  and  _241
REMARK   86  A    between atoms: _241  and  _242
REMARK   87  A    between atoms: _245  and  _247
REMARK   88  A    between atoms: _247  and  _248
REMARK   89  A    between atoms: _247  and  _250
REMARK   90  A    between atoms: _250  and  _251
REMARK   91  A    between atoms: _261  and  _263
REMARK   92  A    between atoms: _263  and  _264
REMARK   93  A    between atoms: _263  and  _266
REMARK   94  A    between atoms: _266  and  _267
REMARK   95  A    between atoms: _272  and  _274
REMARK   96  A    between atoms: _274  and  _275
REMARK   97  A    between atoms: _274  and  _277
REMARK   98  A    between atoms: _277  and  _278
REMARK   99  A    between atoms: _282  and  ZN_376
REMARK  100  A    between atoms: _283  and  _285
REMARK  101  A    between atoms: _285  and  _286
REMARK  102  A    between atoms: _285  and  _288
REMARK  103  A    between atoms: _288  and  _289
REMARK  104  A    between atoms: _292  and  _294
REMARK  105  A    between atoms: _294  and  _295
REMARK  106  A    between atoms: _297  and  _299
REMARK  107  A    between atoms: _299  and  _300
REMARK  108  A    between atoms: _299  and  _302
REMARK  109  A    between atoms: _302  and  _303
REMARK  110  A    between atoms: _306  and  _308
REMARK  111  A    between atoms: _308  and  _309
REMARK  112  A    between atoms: _308  and  _311
REMARK  113  A    between atoms: _311  and  _312
REMARK  114  A    between atoms: _315  and  _317
REMARK  115  A    between atoms: _317  and  _318
REMARK  116  A    between atoms: _321  and  _323
REMARK  117  A    between atoms: _323  and  _324
REMARK  118  A    between atoms: _323  and  _326
REMARK  119  A    between atoms: _326  and  _327
REMARK  120  A    between atoms: _332  and  _333
REMARK  121  A    between atoms: _335  and  _337
REMARK  122  A    between atoms: _337  and  _338
REMARK  123  A    between atoms: _337  and  _340
REMARK  124  A    between atoms: _340  and  _341
REMARK  125  A    between atoms: _341  and  _342
REMARK  126  A    between atoms: _345  and  _347
REMARK  127  A    between atoms: _347  and  _348
REMARK  128  A    between atoms: _347  and  _350
REMARK  129  A    between atoms: _350  and  _351
REMARK  130  A    between atoms: _351  and  _352
REMARK  131  A    between atoms: _352  and  _353
REMARK  132  A    between atoms: _362  and  _364
REMARK  133  A    between atoms: _364  and  _365
REMARK  134  A    between atoms: _367  and  _369
REMARK  135  A    between atoms: _369  and  _370
REMARK  136  A    between atoms: _369  and  _372
REMARK  137  A    between atoms: _372  and  _373
REMARK                            x       y       z     vdW  Elec       q    Type
REMARK                         _______ _______ _______ _____ _____    ______ ____
ROOT
ATOM      1  O   HOH     1      33.541  68.492  16.879  0.00  0.00    +0.000 OA
ENDROOT
TORSDOF 0
REMARK  Name = ../refined-set-2016/2f7o/2f7o_pocket.pdb
REMARK  137 active torsions:
REMARK  status: ('A' for Active; 'I' for Inactive)
REMARK    1  A    between atoms: _1  and  _3
REMARK    2  A    between atoms: _14  and  _17
REMARK    3  A    between atoms: _17  and  _18
REMARK    4  A    between atoms: _25  and  _26
REMARK    5  A    between atoms: _33  and  _34
REMARK    6  A    between atoms: _39  and  _41
REMARK    7  A    between atoms: _41  and  _42
REMARK    8  A    between atoms: _44  and  _46
REMARK    9  A    between atoms: _46  and  _47
REMARK   10  A    between atoms: _46  and  _49
REMARK   11  A    between atoms: _49  and  _50
REMARK   12  A    between atoms: _60  and  _62
REMARK   13  A    between atoms: _62  and  _63
REMARK   14  A    between atoms: _62  and  _65
REMARK   15  A    between atoms: _65  and  _66
REMARK   16  A    between atoms: _69  and  _71
REMARK   17  A    between atoms: _71  and  _72
REMARK   18  A    between atoms: _71  and  _74
REMARK   19  A    between atoms: _74  and  _75
REMARK   20  A    between atoms: _80  and  _81
REMARK   21  A    between atoms: _83  and  _85
REMARK   22  A    between atoms: _85  and  _86
REMARK   23  A    between atoms: _85  and  _88
REMARK   24  A    between atoms: _88  and  _89
REMARK   25  A    between atoms: _89  and  _90
REMARK   26  A    between atoms: _93  and  _95
REMARK   27  A    between atoms: _95  and  _96
REMARK   28  A    between atoms: _95  and  _98
REMARK   29  A    between atoms: _98  and  _99
REMARK   30  A    between atoms: _99  and  _100
REMARK   31  A    between atoms: _102  and  _104
REMARK   32  A    between atoms: _104  and  _105
REMARK   33  A    between atoms: _104  and  _107
REMARK   34  A    between atoms: _107  and  _108
REMARK   35  A    between atoms: _111  and  _113
REMARK   36  A    between atoms: _113  and  _114
REMARK   37  A    between atoms: _113  and  _116
REMARK   38  A    between atoms: _116  and  _117
REMARK   39  A    between atoms: _117  and  _119
REMARK   40  A    between atoms: _119  and  ZN_376
REMARK   41  A    between atoms: _121  and  _122
REMARK   42  A    between atoms: _127  and  _129
REMARK   43  A    between atoms: _129  and  _130
REMARK   44  A    between atoms: _129  and  _132
REMARK   45  A    between atoms: _132  and  _133
REMARK   46  A    between atoms: _139  and  _141
REMARK   47  A    between atoms: _141  and  _142
REMARK   48  A    between atoms: _141  and  _144
REMARK   49  A    between atoms: _144  and  _145
REMARK   50  A    between atoms: _145  and  _146
REMARK   51  A    between atoms: _146  and  _147
REMARK   52  A    between atoms: _156  and  _158
REMARK   53  A    between atoms: _158  and  _159
REMARK   54  A    between atoms: _158  and  _161
REMARK   55  A    between atoms: _161  and  _162
REMARK   56  A    between atoms: _167  and  _168
REMARK   57  A    between atoms: _170  and  _172
REMARK   58  A    between atoms: _172  and  _173
REMARK   59  A    between atoms: _172  and  _175
REMARK   60  A    between atoms: _175  and  _176
REMARK   61  A    between atoms: _178  and  _180
REMARK   62  A    between atoms: _180  and  _181
REMARK   63  A    between atoms: _180  and  _183
REMARK   64  A    between atoms: _183  and  _184
REMARK   65  A    between atoms: _189  and  _190
REMARK   66  A    between atoms: _192  and  _194
REMARK   67  A    between atoms: _194  and  _195
REMARK   68  A    between atoms: _194  and  _197
REMARK   69  A    between atoms: _197  and  _198
REMARK   70  A    between atoms: _201  and  _203
REMARK   71  A    between atoms: _203  and  _204
REMARK   72  A    between atoms: _203  and  _206
REMARK   73  A    between atoms: _206  and  _207
REMARK   74  A    between atoms: _210  and  _212
REMARK   75  A    between atoms: _212  and  _213
REMARK   76  A    between atoms: _212  and  _215
REMARK   77  A    between atoms: _215  and  _216
REMARK   78  A    between atoms: _222  and  _224
REMARK   79  A    between atoms: _224  and  _225
REMARK   80  A    between atoms: _224  and  _227
REMARK   81  A    between atoms: _227  and  _228
REMARK   82  A    between atoms: _233  and  _234
REMARK   83  A    between atoms: _236  and  _238
REMARK   84  A    between atoms: _238  and  _239
REMARK   85  A    between atoms: _238  and  _241
REMARK   86  A    between atoms: _241  and  _242
REMARK   87  A    between atoms: _245  and  _247
REMARK   88  A    between atoms: _247  and  _248
REMARK   89  A    between atoms: _247  and  _250
REMARK   90  A    between atoms: _250  and  _251
REMARK   91  A    between atoms: _261  and  _263
REMARK   92  A    between atoms: _263  and  _264
REMARK   93  A    between atoms: _263  and  _266
REMARK   94  A    between atoms: _266  and  _267
REMARK   95  A    between atoms: _272  and  _274
REMARK   96  A    between atoms: _274  and  _275
REMARK   97  A    between atoms: _274  and  _277
REMARK   98  A    between atoms: _277  and  _278
REMARK   99  A    between atoms: _282  and  ZN_376
REMARK  100  A    between atoms: _283  and  _285
REMARK  101  A    between atoms: _285  and  _286
REMARK  102  A    between atoms: _285  and  _288
REMARK  103  A    between atoms: _288  and  _289
REMARK  104  A    between atoms: _292  and  _294
REMARK  105  A    between atoms: _294  and  _295
REMARK  106  A    between atoms: _297  and  _299
REMARK  107  A    between atoms: _299  and  _300
REMARK  108  A    between atoms: _299  and  _302
REMARK  109  A    between atoms: _302  and  _303
REMARK  110  A    between atoms: _306  and  _308
REMARK  111  A    between atoms: _308  and  _309
REMARK  112  A    between atoms: _308  and  _311
REMARK  113  A    between atoms: _311  and  _312
REMARK  114  A    between atoms: _315  and  _317
REMARK  115  A    between atoms: _317  and  _318
REMARK  116  A    between atoms: _321  and  _323
REMARK  117  A    between atoms: _323  and  _324
REMARK  118  A    between atoms: _323  and  _326
REMARK  119  A    between atoms: _326  and  _327
REMARK  120  A    between atoms: _332  and  _333
REMARK  121  A    between atoms: _335  and  _337
REMARK  122  A    between atoms: _337  and  _338
REMARK  123  A    between atoms: _337  and  _340
REMARK  124  A    between atoms: _340  and  _341
REMARK  125  A    between atoms: _341  and  _342
REMARK  126  A    between atoms: _345  and  _347
REMARK  127  A    between atoms: _347  and  _348
REMARK  128  A    between atoms: _347  and  _350
REMARK  129  A    between atoms: _350  and  _351
REMARK  130  A    between atoms: _351  and  _352
REMARK  131  A    between atoms: _352  and  _353
REMARK  132  A    between atoms: _362  and  _364
REMARK  133  A    between atoms: _364  and  _365
REMARK  134  A    between atoms: _367  and  _369
REMARK  135  A    between atoms: _369  and  _370
REMARK  136  A    between atoms: _369  and  _372
REMARK  137  A    between atoms: _372  and  _373
REMARK                            x       y       z     vdW  Elec       q    Type
REMARK                         _______ _______ _______ _____ _____    ______ ____
ROOT
ATOM      1  O   HOH     1      34.719  70.254  13.468  0.00  0.00    +0.000 OA
ENDROOT
TORSDOF 0
REMARK  Name = ../refined-set-2016/2f7o/2f7o_pocket.pdb
REMARK  137 active torsions:
REMARK  status: ('A' for Active; 'I' for Inactive)
REMARK    1  A    between atoms: _1  and  _3
REMARK    2  A    between atoms: _14  and  _17
REMARK    3  A    between atoms: _17  and  _18
REMARK    4  A    between atoms: _25  and  _26
REMARK    5  A    between atoms: _33  and  _34
REMARK    6  A    between atoms: _39  and  _41
REMARK    7  A    between atoms: _41  and  _42
REMARK    8  A    between atoms: _44  and  _46
REMARK    9  A    between atoms: _46  and  _47
REMARK   10  A    between atoms: _46  and  _49
REMARK   11  A    between atoms: _49  and  _50
REMARK   12  A    between atoms: _60  and  _62
REMARK   13  A    between atoms: _62  and  _63
REMARK   14  A    between atoms: _62  and  _65
REMARK   15  A    between atoms: _65  and  _66
REMARK   16  A    between atoms: _69  and  _71
REMARK   17  A    between atoms: _71  and  _72
REMARK   18  A    between atoms: _71  and  _74
REMARK   19  A    between atoms: _74  and  _75
REMARK   20  A    between atoms: _80  and  _81
REMARK   21  A    between atoms: _83  and  _85
REMARK   22  A    between atoms: _85  and  _86
REMARK   23  A    between atoms: _85  and  _88
REMARK   24  A    between atoms: _88  and  _89
REMARK   25  A    between atoms: _89  and  _90
REMARK   26  A    between atoms: _93  and  _95
REMARK   27  A    between atoms: _95  and  _96
REMARK   28  A    between atoms: _95  and  _98
REMARK   29  A    between atoms: _98  and  _99
REMARK   30  A    between atoms: _99  and  _100
REMARK   31  A    between atoms: _102  and  _104
REMARK   32  A    between atoms: _104  and  _105
REMARK   33  A    between atoms: _104  and  _107
REMARK   34  A    between atoms: _107  and  _108
REMARK   35  A    between atoms: _111  and  _113
REMARK   36  A    between atoms: _113  and  _114
REMARK   37  A    between atoms: _113  and  _116
REMARK   38  A    between atoms: _116  and  _117
REMARK   39  A    between atoms: _117  and  _119
REMARK   40  A    between atoms: _119  and  ZN_376
REMARK   41  A    between atoms: _121  and  _122
REMARK   42  A    between atoms: _127  and  _129
REMARK   43  A    between atoms: _129  and  _130
REMARK   44  A    between atoms: _129  and  _132
REMARK   45  A    between atoms: _132  and  _133
REMARK   46  A    between atoms: _139  and  _141
REMARK   47  A    between atoms: _141  and  _142
REMARK   48  A    between atoms: _141  and  _144
REMARK   49  A    between atoms: _144  and  _145
REMARK   50  A    between atoms: _145  and  _146
REMARK   51  A    between atoms: _146  and  _147
REMARK   52  A    between atoms: _156  and  _158
REMARK   53  A    between atoms: _158  and  _159
REMARK   54  A    between atoms: _158  and  _161
REMARK   55  A    between atoms: _161  and  _162
REMARK   56  A    between atoms: _167  and  _168
REMARK   57  A    between atoms: _170  and  _172
REMARK   58  A    between atoms: _172  and  _173
REMARK   59  A    between atoms: _172  and  _175
REMARK   60  A    between atoms: _175  and  _176
REMARK   61  A    between atoms: _178  and  _180
REMARK   62  A    between atoms: _180  and  _181
REMARK   63  A    between atoms: _180  and  _183
REMARK   64  A    between atoms: _183  and  _184
REMARK   65  A    between atoms: _189  and  _190
REMARK   66  A    between atoms: _192  and  _194
REMARK   67  A    between atoms: _194  and  _195
REMARK   68  A    between atoms: _194  and  _197
REMARK   69  A    between atoms: _197  and  _198
REMARK   70  A    between atoms: _201  and  _203
REMARK   71  A    between atoms: _203  and  _204
REMARK   72  A    between atoms: _203  and  _206
REMARK   73  A    between atoms: _206  and  _207
REMARK   74  A    between atoms: _210  and  _212
REMARK   75  A    between atoms: _212  and  _213
REMARK   76  A    between atoms: _212  and  _215
REMARK   77  A    between atoms: _215  and  _216
REMARK   78  A    between atoms: _222  and  _224
REMARK   79  A    between atoms: _224  and  _225
REMARK   80  A    between atoms: _224  and  _227
REMARK   81  A    between atoms: _227  and  _228
REMARK   82  A    between atoms: _233  and  _234
REMARK   83  A    between atoms: _236  and  _238
REMARK   84  A    between atoms: _238  and  _239
REMARK   85  A    between atoms: _238  and  _241
REMARK   86  A    between atoms: _241  and  _242
REMARK   87  A    between atoms: _245  and  _247
REMARK   88  A    between atoms: _247  and  _248
REMARK   89  A    between atoms: _247  and  _250
REMARK   90  A    between atoms: _250  and  _251
REMARK   91  A    between atoms: _261  and  _263
REMARK   92  A    between atoms: _263  and  _264
REMARK   93  A    between atoms: _263  and  _266
REMARK   94  A    between atoms: _266  and  _267
REMARK   95  A    between atoms: _272  and  _274
REMARK   96  A    between atoms: _274  and  _275
REMARK   97  A    between atoms: _274  and  _277
REMARK   98  A    between atoms: _277  and  _278
REMARK   99  A    between atoms: _282  and  ZN_376
REMARK  100  A    between atoms: _283  and  _285
REMARK  101  A    between atoms: _285  and  _286
REMARK  102  A    between atoms: _285  and  _288
REMARK  103  A    between atoms: _288  and  _289
REMARK  104  A    between atoms: _292  and  _294
REMARK  105  A    between atoms: _294  and  _295
REMARK  106  A    between atoms: _297  and  _299
REMARK  107  A    between atoms: _299  and  _300
REMARK  108  A    between atoms: _299  and  _302
REMARK  109  A    between atoms: _302  and  _303
REMARK  110  A    between atoms: _306  and  _308
REMARK  111  A    between atoms: _308  and  _309
REMARK  112  A    between atoms: _308  and  _311
REMARK  113  A    between atoms: _311  and  _312
REMARK  114  A    between atoms: _315  and  _317
REMARK  115  A    between atoms: _317  and  _318
REMARK  116  A    between atoms: _321  and  _323
REMARK  117  A    between atoms: _323  and  _324
REMARK  118  A    between atoms: _323  and  _326
REMARK  119  A    between atoms: _326  and  _327
REMARK  120  A    between atoms: _332  and  _333
REMARK  121  A    between atoms: _335  and  _337
REMARK  122  A    between atoms: _337  and  _338
REMARK  123  A    between atoms: _337  and  _340
REMARK  124  A    between atoms: _340  and  _341
REMARK  125  A    between atoms: _341  and  _342
REMARK  126  A    between atoms: _345  and  _347
REMARK  127  A    between atoms: _347  and  _348
REMARK  128  A    between atoms: _347  and  _350
REMARK  129  A    between atoms: _350  and  _351
REMARK  130  A    between atoms: _351  and  _352
REMARK  131  A    between atoms: _352  and  _353
REMARK  132  A    between atoms: _362  and  _364
REMARK  133  A    between atoms: _364  and  _365
REMARK  134  A    between atoms: _367  and  _369
REMARK  135  A    between atoms: _369  and  _370
REMARK  136  A    between atoms: _369  and  _372
REMARK  137  A    between atoms: _372  and  _373
REMARK                            x       y       z     vdW  Elec       q    Type
REMARK                         _______ _______ _______ _____ _____    ______ ____
ROOT
ATOM      1  O   HOH     1      34.111  67.444  12.609  0.00  0.00    +0.000 OA
ENDROOT
TORSDOF 0
REMARK  Name = ../refined-set-2016/2f7o/2f7o_pocket.pdb
REMARK  137 active torsions:
REMARK  status: ('A' for Active; 'I' for Inactive)
REMARK    1  A    between atoms: _1  and  _3
REMARK    2  A    between atoms: _14  and  _17
REMARK    3  A    between atoms: _17  and  _18
REMARK    4  A    between atoms: _25  and  _26
REMARK    5  A    between atoms: _33  and  _34
REMARK    6  A    between atoms: _39  and  _41
REMARK    7  A    between atoms: _41  and  _42
REMARK    8  A    between atoms: _44  and  _46
REMARK    9  A    between atoms: _46  and  _47
REMARK   10  A    between atoms: _46  and  _49
REMARK   11  A    between atoms: _49  and  _50
REMARK   12  A    between atoms: _60  and  _62
REMARK   13  A    between atoms: _62  and  _63
REMARK   14  A    between atoms: _62  and  _65
REMARK   15  A    between atoms: _65  and  _66
REMARK   16  A    between atoms: _69  and  _71
REMARK   17  A    between atoms: _71  and  _72
REMARK   18  A    between atoms: _71  and  _74
REMARK   19  A    between atoms: _74  and  _75
REMARK   20  A    between atoms: _80  and  _81
REMARK   21  A    between atoms: _83  and  _85
REMARK   22  A    between atoms: _85  and  _86
REMARK   23  A    between atoms: _85  and  _88
REMARK   24  A    between atoms: _88  and  _89
REMARK   25  A    between atoms: _89  and  _90
REMARK   26  A    between atoms: _93  and  _95
REMARK   27  A    between atoms: _95  and  _96
REMARK   28  A    between atoms: _95  and  _98
REMARK   29  A    between atoms: _98  and  _99
REMARK   30  A    between atoms: _99  and  _100
REMARK   31  A    between atoms: _102  and  _104
REMARK   32  A    between atoms: _104  and  _105
REMARK   33  A    between atoms: _104  and  _107
REMARK   34  A    between atoms: _107  and  _108
REMARK   35  A    between atoms: _111  and  _113
REMARK   36  A    between atoms: _113  and  _114
REMARK   37  A    between atoms: _113  and  _116
REMARK   38  A    between atoms: _116  and  _117
REMARK   39  A    between atoms: _117  and  _119
REMARK   40  A    between atoms: _119  and  ZN_376
REMARK   41  A    between atoms: _121  and  _122
REMARK   42  A    between atoms: _127  and  _129
REMARK   43  A    between atoms: _129  and  _130
REMARK   44  A    between atoms: _129  and  _132
REMARK   45  A    between atoms: _132  and  _133
REMARK   46  A    between atoms: _139  and  _141
REMARK   47  A    between atoms: _141  and  _142
REMARK   48  A    between atoms: _141  and  _144
REMARK   49  A    between atoms: _144  and  _145
REMARK   50  A    between atoms: _145  and  _146
REMARK   51  A    between atoms: _146  and  _147
REMARK   52  A    between atoms: _156  and  _158
REMARK   53  A    between atoms: _158  and  _159
REMARK   54  A    between atoms: _158  and  _161
REMARK   55  A    between atoms: _161  and  _162
REMARK   56  A    between atoms: _167  and  _168
REMARK   57  A    between atoms: _170  and  _172
REMARK   58  A    between atoms: _172  and  _173
REMARK   59  A    between atoms: _172  and  _175
REMARK   60  A    between atoms: _175  and  _176
REMARK   61  A    between atoms: _178  and  _180
REMARK   62  A    between atoms: _180  and  _181
REMARK   63  A    between atoms: _180  and  _183
REMARK   64  A    between atoms: _183  and  _184
REMARK   65  A    between atoms: _189  and  _190
REMARK   66  A    between atoms: _192  and  _194
REMARK   67  A    between atoms: _194  and  _195
REMARK   68  A    between atoms: _194  and  _197
REMARK   69  A    between atoms: _197  and  _198
REMARK   70  A    between atoms: _201  and  _203
REMARK   71  A    between atoms: _203  and  _204
REMARK   72  A    between atoms: _203  and  _206
REMARK   73  A    between atoms: _206  and  _207
REMARK   74  A    between atoms: _210  and  _212
REMARK   75  A    between atoms: _212  and  _213
REMARK   76  A    between atoms: _212  and  _215
REMARK   77  A    between atoms: _215  and  _216
REMARK   78  A    between atoms: _222  and  _224
REMARK   79  A    between atoms: _224  and  _225
REMARK   80  A    between atoms: _224  and  _227
REMARK   81  A    between atoms: _227  and  _228
REMARK   82  A    between atoms: _233  and  _234
REMARK   83  A    between atoms: _236  and  _238
REMARK   84  A    between atoms: _238  and  _239
REMARK   85  A    between atoms: _238  and  _241
REMARK   86  A    between atoms: _241  and  _242
REMARK   87  A    between atoms: _245  and  _247
REMARK   88  A    between atoms: _247  and  _248
REMARK   89  A    between atoms: _247  and  _250
REMARK   90  A    between atoms: _250  and  _251
REMARK   91  A    between atoms: _261  and  _263
REMARK   92  A    between atoms: _263  and  _264
REMARK   93  A    between atoms: _263  and  _266
REMARK   94  A    between atoms: _266  and  _267
REMARK   95  A    between atoms: _272  and  _274
REMARK   96  A    between atoms: _274  and  _275
REMARK   97  A    between atoms: _274  and  _277
REMARK   98  A    between atoms: _277  and  _278
REMARK   99  A    between atoms: _282  and  ZN_376
REMARK  100  A    between atoms: _283  and  _285
REMARK  101  A    between atoms: _285  and  _286
REMARK  102  A    between atoms: _285  and  _288
REMARK  103  A    between atoms: _288  and  _289
REMARK  104  A    between atoms: _292  and  _294
REMARK  105  A    between atoms: _294  and  _295
REMARK  106  A    between atoms: _297  and  _299
REMARK  107  A    between atoms: _299  and  _300
REMARK  108  A    between atoms: _299  and  _302
REMARK  109  A    between atoms: _302  and  _303
REMARK  110  A    between atoms: _306  and  _308
REMARK  111  A    between atoms: _308  and  _309
REMARK  112  A    between atoms: _308  and  _311
REMARK  113  A    between atoms: _311  and  _312
REMARK  114  A    between atoms: _315  and  _317
REMARK  115  A    between atoms: _317  and  _318
REMARK  116  A    between atoms: _321  and  _323
REMARK  117  A    between atoms: _323  and  _324
REMARK  118  A    between atoms: _323  and  _326
REMARK  119  A    between atoms: _326  and  _327
REMARK  120  A    between atoms: _332  and  _333
REMARK  121  A    between atoms: _335  and  _337
REMARK  122  A    between atoms: _337  and  _338
REMARK  123  A    between atoms: _337  and  _340
REMARK  124  A    between atoms: _340  and  _341
REMARK  125  A    between atoms: _341  and  _342
REMARK  126  A    between atoms: _345  and  _347
REMARK  127  A    between atoms: _347  and  _348
REMARK  128  A    between atoms: _347  and  _350
REMARK  129  A    between atoms: _350  and  _351
REMARK  130  A    between atoms: _351  and  _352
REMARK  131  A    between atoms: _352  and  _353
REMARK  132  A    between atoms: _362  and  _364
REMARK  133  A    between atoms: _364  and  _365
REMARK  134  A    between atoms: _367  and  _369
REMARK  135  A    between atoms: _369  and  _370
REMARK  136  A    between atoms: _369  and  _372
REMARK  137  A    between atoms: _372  and  _373
REMARK                            x       y       z     vdW  Elec       q    Type
REMARK                         _______ _______ _______ _____ _____    ______ ____
ROOT
ATOM      1  O   HOH     1      28.623  63.250  11.040  0.00  0.00    +0.000 OA
ENDROOT
TORSDOF 0
REMARK  Name = ../refined-set-2016/2f7o/2f7o_pocket.pdb
REMARK  137 active torsions:
REMARK  status: ('A' for Active; 'I' for Inactive)
REMARK    1  A    between atoms: _1  and  _3
REMARK    2  A    between atoms: _14  and  _17
REMARK    3  A    between atoms: _17  and  _18
REMARK    4  A    between atoms: _25  and  _26
REMARK    5  A    between atoms: _33  and  _34
REMARK    6  A    between atoms: _39  and  _41
REMARK    7  A    between atoms: _41  and  _42
REMARK    8  A    between atoms: _44  and  _46
REMARK    9  A    between atoms: _46  and  _47
REMARK   10  A    between atoms: _46  and  _49
REMARK   11  A    between atoms: _49  and  _50
REMARK   12  A    between atoms: _60  and  _62
REMARK   13  A    between atoms: _62  and  _63
REMARK   14  A    between atoms: _62  and  _65
REMARK   15  A    between atoms: _65  and  _66
REMARK   16  A    between atoms: _69  and  _71
REMARK   17  A    between atoms: _71  and  _72
REMARK   18  A    between atoms: _71  and  _74
REMARK   19  A    between atoms: _74  and  _75
REMARK   20  A    between atoms: _80  and  _81
REMARK   21  A    between atoms: _83  and  _85
REMARK   22  A    between atoms: _85  and  _86
REMARK   23  A    between atoms: _85  and  _88
REMARK   24  A    between atoms: _88  and  _89
REMARK   25  A    between atoms: _89  and  _90
REMARK   26  A    between atoms: _93  and  _95
REMARK   27  A    between atoms: _95  and  _96
REMARK   28  A    between atoms: _95  and  _98
REMARK   29  A    between atoms: _98  and  _99
REMARK   30  A    between atoms: _99  and  _100
REMARK   31  A    between atoms: _102  and  _104
REMARK   32  A    between atoms: _104  and  _105
REMARK   33  A    between atoms: _104  and  _107
REMARK   34  A    between atoms: _107  and  _108
REMARK   35  A    between atoms: _111  and  _113
REMARK   36  A    between atoms: _113  and  _114
REMARK   37  A    between atoms: _113  and  _116
REMARK   38  A    between atoms: _116  and  _117
REMARK   39  A    between atoms: _117  and  _119
REMARK   40  A    between atoms: _119  and  ZN_376
REMARK   41  A    between atoms: _121  and  _122
REMARK   42  A    between atoms: _127  and  _129
REMARK   43  A    between atoms: _129  and  _130
REMARK   44  A    between atoms: _129  and  _132
REMARK   45  A    between atoms: _132  and  _133
REMARK   46  A    between atoms: _139  and  _141
REMARK   47  A    between atoms: _141  and  _142
REMARK   48  A    between atoms: _141  and  _144
REMARK   49  A    between atoms: _144  and  _145
REMARK   50  A    between atoms: _145  and  _146
REMARK   51  A    between atoms: _146  and  _147
REMARK   52  A    between atoms: _156  and  _158
REMARK   53  A    between atoms: _158  and  _159
REMARK   54  A    between atoms: _158  and  _161
REMARK   55  A    between atoms: _161  and  _162
REMARK   56  A    between atoms: _167  and  _168
REMARK   57  A    between atoms: _170  and  _172
REMARK   58  A    between atoms: _172  and  _173
REMARK   59  A    between atoms: _172  and  _175
REMARK   60  A    between atoms: _175  and  _176
REMARK   61  A    between atoms: _178  and  _180
REMARK   62  A    between atoms: _180  and  _181
REMARK   63  A    between atoms: _180  and  _183
REMARK   64  A    between atoms: _183  and  _184
REMARK   65  A    between atoms: _189  and  _190
REMARK   66  A    between atoms: _192  and  _194
REMARK   67  A    between atoms: _194  and  _195
REMARK   68  A    between atoms: _194  and  _197
REMARK   69  A    between atoms: _197  and  _198
REMARK   70  A    between atoms: _201  and  _203
REMARK   71  A    between atoms: _203  and  _204
REMARK   72  A    between atoms: _203  and  _206
REMARK   73  A    between atoms: _206  and  _207
REMARK   74  A    between atoms: _210  and  _212
REMARK   75  A    between atoms: _212  and  _213
REMARK   76  A    between atoms: _212  and  _215
REMARK   77  A    between atoms: _215  and  _216
REMARK   78  A    between atoms: _222  and  _224
REMARK   79  A    between atoms: _224  and  _225
REMARK   80  A    between atoms: _224  and  _227
REMARK   81  A    between atoms: _227  and  _228
REMARK   82  A    between atoms: _233  and  _234
REMARK   83  A    between atoms: _236  and  _238
REMARK   84  A    between atoms: _238  and  _239
REMARK   85  A    between atoms: _238  and  _241
REMARK   86  A    between atoms: _241  and  _242
REMARK   87  A    between atoms: _245  and  _247
REMARK   88  A    between atoms: _247  and  _248
REMARK   89  A    between atoms: _247  and  _250
REMARK   90  A    between atoms: _250  and  _251
REMARK   91  A    between atoms: _261  and  _263
REMARK   92  A    between atoms: _263  and  _264
REMARK   93  A    between atoms: _263  and  _266
REMARK   94  A    between atoms: _266  and  _267
REMARK   95  A    between atoms: _272  and  _274
REMARK   96  A    between atoms: _274  and  _275
REMARK   97  A    between atoms: _274  and  _277
REMARK   98  A    between atoms: _277  and  _278
REMARK   99  A    between atoms: _282  and  ZN_376
REMARK  100  A    between atoms: _283  and  _285
REMARK  101  A    between atoms: _285  and  _286
REMARK  102  A    between atoms: _285  and  _288
REMARK  103  A    between atoms: _288  and  _289
REMARK  104  A    between atoms: _292  and  _294
REMARK  105  A    between atoms: _294  and  _295
REMARK  106  A    between atoms: _297  and  _299
REMARK  107  A    between atoms: _299  and  _300
REMARK  108  A    between atoms: _299  and  _302
REMARK  109  A    between atoms: _302  and  _303
REMARK  110  A    between atoms: _306  and  _308
REMARK  111  A    between atoms: _308  and  _309
REMARK  112  A    between atoms: _308  and  _311
REMARK  113  A    between atoms: _311  and  _312
REMARK  114  A    between atoms: _315  and  _317
REMARK  115  A    between atoms: _317  and  _318
REMARK  116  A    between atoms: _321  and  _323
REMARK  117  A    between atoms: _323  and  _324
REMARK  118  A    between atoms: _323  and  _326
REMARK  119  A    between atoms: _326  and  _327
REMARK  120  A    between atoms: _332  and  _333
REMARK  121  A    between atoms: _335  and  _337
REMARK  122  A    between atoms: _337  and  _338
REMARK  123  A    between atoms: _337  and  _340
REMARK  124  A    between atoms: _340  and  _341
REMARK  125  A    between atoms: _341  and  _342
REMARK  126  A    between atoms: _345  and  _347
REMARK  127  A    between atoms: _347  and  _348
REMARK  128  A    between atoms: _347  and  _350
REMARK  129  A    between atoms: _350  and  _351
REMARK  130  A    between atoms: _351  and  _352
REMARK  131  A    between atoms: _352  and  _353
REMARK  132  A    between atoms: _362  and  _364
REMARK  133  A    between atoms: _364  and  _365
REMARK  134  A    between atoms: _367  and  _369
REMARK  135  A    between atoms: _369  and  _370
REMARK  136  A    between atoms: _369  and  _372
REMARK  137  A    between atoms: _372  and  _373
REMARK                            x       y       z     vdW  Elec       q    Type
REMARK                         _______ _______ _______ _____ _____    ______ ____
ROOT
ATOM      1  O   HOH     1      28.466  62.679  13.729  0.00  0.00    +0.000 OA
ENDROOT
TORSDOF 0
REMARK  Name = ../refined-set-2016/2f7o/2f7o_pocket.pdb
REMARK  137 active torsions:
REMARK  status: ('A' for Active; 'I' for Inactive)
REMARK    1  A    between atoms: _1  and  _3
REMARK    2  A    between atoms: _14  and  _17
REMARK    3  A    between atoms: _17  and  _18
REMARK    4  A    between atoms: _25  and  _26
REMARK    5  A    between atoms: _33  and  _34
REMARK    6  A    between atoms: _39  and  _41
REMARK    7  A    between atoms: _41  and  _42
REMARK    8  A    between atoms: _44  and  _46
REMARK    9  A    between atoms: _46  and  _47
REMARK   10  A    between atoms: _46  and  _49
REMARK   11  A    between atoms: _49  and  _50
REMARK   12  A    between atoms: _60  and  _62
REMARK   13  A    between atoms: _62  and  _63
REMARK   14  A    between atoms: _62  and  _65
REMARK   15  A    between atoms: _65  and  _66
REMARK   16  A    between atoms: _69  and  _71
REMARK   17  A    between atoms: _71  and  _72
REMARK   18  A    between atoms: _71  and  _74
REMARK   19  A    between atoms: _74  and  _75
REMARK   20  A    between atoms: _80  and  _81
REMARK   21  A    between atoms: _83  and  _85
REMARK   22  A    between atoms: _85  and  _86
REMARK   23  A    between atoms: _85  and  _88
REMARK   24  A    between atoms: _88  and  _89
REMARK   25  A    between atoms: _89  and  _90
REMARK   26  A    between atoms: _93  and  _95
REMARK   27  A    between atoms: _95  and  _96
REMARK   28  A    between atoms: _95  and  _98
REMARK   29  A    between atoms: _98  and  _99
REMARK   30  A    between atoms: _99  and  _100
REMARK   31  A    between atoms: _102  and  _104
REMARK   32  A    between atoms: _104  and  _105
REMARK   33  A    between atoms: _104  and  _107
REMARK   34  A    between atoms: _107  and  _108
REMARK   35  A    between atoms: _111  and  _113
REMARK   36  A    between atoms: _113  and  _114
REMARK   37  A    between atoms: _113  and  _116
REMARK   38  A    between atoms: _116  and  _117
REMARK   39  A    between atoms: _117  and  _119
REMARK   40  A    between atoms: _119  and  ZN_376
REMARK   41  A    between atoms: _121  and  _122
REMARK   42  A    between atoms: _127  and  _129
REMARK   43  A    between atoms: _129  and  _130
REMARK   44  A    between atoms: _129  and  _132
REMARK   45  A    between atoms: _132  and  _133
REMARK   46  A    between atoms: _139  and  _141
REMARK   47  A    between atoms: _141  and  _142
REMARK   48  A    between atoms: _141  and  _144
REMARK   49  A    between atoms: _144  and  _145
REMARK   50  A    between atoms: _145  and  _146
REMARK   51  A    between atoms: _146  and  _147
REMARK   52  A    between atoms: _156  and  _158
REMARK   53  A    between atoms: _158  and  _159
REMARK   54  A    between atoms: _158  and  _161
REMARK   55  A    between atoms: _161  and  _162
REMARK   56  A    between atoms: _167  and  _168
REMARK   57  A    between atoms: _170  and  _172
REMARK   58  A    between atoms: _172  and  _173
REMARK   59  A    between atoms: _172  and  _175
REMARK   60  A    between atoms: _175  and  _176
REMARK   61  A    between atoms: _178  and  _180
REMARK   62  A    between atoms: _180  and  _181
REMARK   63  A    between atoms: _180  and  _183
REMARK   64  A    between atoms: _183  and  _184
REMARK   65  A    between atoms: _189  and  _190
REMARK   66  A    between atoms: _192  and  _194
REMARK   67  A    between atoms: _194  and  _195
REMARK   68  A    between atoms: _194  and  _197
REMARK   69  A    between atoms: _197  and  _198
REMARK   70  A    between atoms: _201  and  _203
REMARK   71  A    between atoms: _203  and  _204
REMARK   72  A    between atoms: _203  and  _206
REMARK   73  A    between atoms: _206  and  _207
REMARK   74  A    between atoms: _210  and  _212
REMARK   75  A    between atoms: _212  and  _213
REMARK   76  A    between atoms: _212  and  _215
REMARK   77  A    between atoms: _215  and  _216
REMARK   78  A    between atoms: _222  and  _224
REMARK   79  A    between atoms: _224  and  _225
REMARK   80  A    between atoms: _224  and  _227
REMARK   81  A    between atoms: _227  and  _228
REMARK   82  A    between atoms: _233  and  _234
REMARK   83  A    between atoms: _236  and  _238
REMARK   84  A    between atoms: _238  and  _239
REMARK   85  A    between atoms: _238  and  _241
REMARK   86  A    between atoms: _241  and  _242
REMARK   87  A    between atoms: _245  and  _247
REMARK   88  A    between atoms: _247  and  _248
REMARK   89  A    between atoms: _247  and  _250
REMARK   90  A    between atoms: _250  and  _251
REMARK   91  A    between atoms: _261  and  _263
REMARK   92  A    between atoms: _263  and  _264
REMARK   93  A    between atoms: _263  and  _266
REMARK   94  A    between atoms: _266  and  _267
REMARK   95  A    between atoms: _272  and  _274
REMARK   96  A    between atoms: _274  and  _275
REMARK   97  A    between atoms: _274  and  _277
REMARK   98  A    between atoms: _277  and  _278
REMARK   99  A    between atoms: _282  and  ZN_376
REMARK  100  A    between atoms: _283  and  _285
REMARK  101  A    between atoms: _285  and  _286
REMARK  102  A    between atoms: _285  and  _288
REMARK  103  A    between atoms: _288  and  _289
REMARK  104  A    between atoms: _292  and  _294
REMARK  105  A    between atoms: _294  and  _295
REMARK  106  A    between atoms: _297  and  _299
REMARK  107  A    between atoms: _299  and  _300
REMARK  108  A    between atoms: _299  and  _302
REMARK  109  A    between atoms: _302  and  _303
REMARK  110  A    between atoms: _306  and  _308
REMARK  111  A    between atoms: _308  and  _309
REMARK  112  A    between atoms: _308  and  _311
REMARK  113  A    between atoms: _311  and  _312
REMARK  114  A    between atoms: _315  and  _317
REMARK  115  A    between atoms: _317  and  _318
REMARK  116  A    between atoms: _321  and  _323
REMARK  117  A    between atoms: _323  and  _324
REMARK  118  A    between atoms: _323  and  _326
REMARK  119  A    between atoms: _326  and  _327
REMARK  120  A    between atoms: _332  and  _333
REMARK  121  A    between atoms: _335  and  _337
REMARK  122  A    between atoms: _337  and  _338
REMARK  123  A    between atoms: _337  and  _340
REMARK  124  A    between atoms: _340  and  _341
REMARK  125  A    between atoms: _341  and  _342
REMARK  126  A    between atoms: _345  and  _347
REMARK  127  A    between atoms: _347  and  _348
REMARK  128  A    between atoms: _347  and  _350
REMARK  129  A    between atoms: _350  and  _351
REMARK  130  A    between atoms: _351  and  _352
REMARK  131  A    between atoms: _352  and  _353
REMARK  132  A    between atoms: _362  and  _364
REMARK  133  A    between atoms: _364  and  _365
REMARK  134  A    between atoms: _367  and  _369
REMARK  135  A    between atoms: _369  and  _370
REMARK  136  A    between atoms: _369  and  _372
REMARK  137  A    between atoms: _372  and  _373
REMARK                            x       y       z     vdW  Elec       q    Type
REMARK                         _______ _______ _______ _____ _____    ______ ____
ROOT
ATOM      1  O   HOH     1      25.796  62.901  13.574  0.00  0.00    +0.000 OA
ENDROOT
TORSDOF 0
REMARK  Name = ../refined-set-2016/2f7o/2f7o_pocket.pdb
REMARK  137 active torsions:
REMARK  status: ('A' for Active; 'I' for Inactive)
REMARK    1  A    between atoms: _1  and  _3
REMARK    2  A    between atoms: _14  and  _17
REMARK    3  A    between atoms: _17  and  _18
REMARK    4  A    between atoms: _25  and  _26
REMARK    5  A    between atoms: _33  and  _34
REMARK    6  A    between atoms: _39  and  _41
REMARK    7  A    between atoms: _41  and  _42
REMARK    8  A    between atoms: _44  and  _46
REMARK    9  A    between atoms: _46  and  _47
REMARK   10  A    between atoms: _46  and  _49
REMARK   11  A    between atoms: _49  and  _50
REMARK   12  A    between atoms: _60  and  _62
REMARK   13  A    between atoms: _62  and  _63
REMARK   14  A    between atoms: _62  and  _65
REMARK   15  A    between atoms: _65  and  _66
REMARK   16  A    between atoms: _69  and  _71
REMARK   17  A    between atoms: _71  and  _72
REMARK   18  A    between atoms: _71  and  _74
REMARK   19  A    between atoms: _74  and  _75
REMARK   20  A    between atoms: _80  and  _81
REMARK   21  A    between atoms: _83  and  _85
REMARK   22  A    between atoms: _85  and  _86
REMARK   23  A    between atoms: _85  and  _88
REMARK   24  A    between atoms: _88  and  _89
REMARK   25  A    between atoms: _89  and  _90
REMARK   26  A    between atoms: _93  and  _95
REMARK   27  A    between atoms: _95  and  _96
REMARK   28  A    between atoms: _95  and  _98
REMARK   29  A    between atoms: _98  and  _99
REMARK   30  A    between atoms: _99  and  _100
REMARK   31  A    between atoms: _102  and  _104
REMARK   32  A    between atoms: _104  and  _105
REMARK   33  A    between atoms: _104  and  _107
REMARK   34  A    between atoms: _107  and  _108
REMARK   35  A    between atoms: _111  and  _113
REMARK   36  A    between atoms: _113  and  _114
REMARK   37  A    between atoms: _113  and  _116
REMARK   38  A    between atoms: _116  and  _117
REMARK   39  A    between atoms: _117  and  _119
REMARK   40  A    between atoms: _119  and  ZN_376
REMARK   41  A    between atoms: _121  and  _122
REMARK   42  A    between atoms: _127  and  _129
REMARK   43  A    between atoms: _129  and  _130
REMARK   44  A    between atoms: _129  and  _132
REMARK   45  A    between atoms: _132  and  _133
REMARK   46  A    between atoms: _139  and  _141
REMARK   47  A    between atoms: _141  and  _142
REMARK   48  A    between atoms: _141  and  _144
REMARK   49  A    between atoms: _144  and  _145
REMARK   50  A    between atoms: _145  and  _146
REMARK   51  A    between atoms: _146  and  _147
REMARK   52  A    between atoms: _156  and  _158
REMARK   53  A    between atoms: _158  and  _159
REMARK   54  A    between atoms: _158  and  _161
REMARK   55  A    between atoms: _161  and  _162
REMARK   56  A    between atoms: _167  and  _168
REMARK   57  A    between atoms: _170  and  _172
REMARK   58  A    between atoms: _172  and  _173
REMARK   59  A    between atoms: _172  and  _175
REMARK   60  A    between atoms: _175  and  _176
REMARK   61  A    between atoms: _178  and  _180
REMARK   62  A    between atoms: _180  and  _181
REMARK   63  A    between atoms: _180  and  _183
REMARK   64  A    between atoms: _183  and  _184
REMARK   65  A    between atoms: _189  and  _190
REMARK   66  A    between atoms: _192  and  _194
REMARK   67  A    between atoms: _194  and  _195
REMARK   68  A    between atoms: _194  and  _197
REMARK   69  A    between atoms: _197  and  _198
REMARK   70  A    between atoms: _201  and  _203
REMARK   71  A    between atoms: _203  and  _204
REMARK   72  A    between atoms: _203  and  _206
REMARK   73  A    between atoms: _206  and  _207
REMARK   74  A    between atoms: _210  and  _212
REMARK   75  A    between atoms: _212  and  _213
REMARK   76  A    between atoms: _212  and  _215
REMARK   77  A    between atoms: _215  and  _216
REMARK   78  A    between atoms: _222  and  _224
REMARK   79  A    between atoms: _224  and  _225
REMARK   80  A    between atoms: _224  and  _227
REMARK   81  A    between atoms: _227  and  _228
REMARK   82  A    between atoms: _233  and  _234
REMARK   83  A    between atoms: _236  and  _238
REMARK   84  A    between atoms: _238  and  _239
REMARK   85  A    between atoms: _238  and  _241
REMARK   86  A    between atoms: _241  and  _242
REMARK   87  A    between atoms: _245  and  _247
REMARK   88  A    between atoms: _247  and  _248
REMARK   89  A    between atoms: _247  and  _250
REMARK   90  A    between atoms: _250  and  _251
REMARK   91  A    between atoms: _261  and  _263
REMARK   92  A    between atoms: _263  and  _264
REMARK   93  A    between atoms: _263  and  _266
REMARK   94  A    between atoms: _266  and  _267
REMARK   95  A    between atoms: _272  and  _274
REMARK   96  A    between atoms: _274  and  _275
REMARK   97  A    between atoms: _274  and  _277
REMARK   98  A    between atoms: _277  and  _278
REMARK   99  A    between atoms: _282  and  ZN_376
REMARK  100  A    between atoms: _283  and  _285
REMARK  101  A    between atoms: _285  and  _286
REMARK  102  A    between atoms: _285  and  _288
REMARK  103  A    between atoms: _288  and  _289
REMARK  104  A    between atoms: _292  and  _294
REMARK  105  A    between atoms: _294  and  _295
REMARK  106  A    between atoms: _297  and  _299
REMARK  107  A    between atoms: _299  and  _300
REMARK  108  A    between atoms: _299  and  _302
REMARK  109  A    between atoms: _302  and  _303
REMARK  110  A    between atoms: _306  and  _308
REMARK  111  A    between atoms: _308  and  _309
REMARK  112  A    between atoms: _308  and  _311
REMARK  113  A    between atoms: _311  and  _312
REMARK  114  A    between atoms: _315  and  _317
REMARK  115  A    between atoms: _317  and  _318
REMARK  116  A    between atoms: _321  and  _323
REMARK  117  A    between atoms: _323  and  _324
REMARK  118  A    between atoms: _323  and  _326
REMARK  119  A    between atoms: _326  and  _327
REMARK  120  A    between atoms: _332  and  _333
REMARK  121  A    between atoms: _335  and  _337
REMARK  122  A    between atoms: _337  and  _338
REMARK  123  A    between atoms: _337  and  _340
REMARK  124  A    between atoms: _340  and  _341
REMARK  125  A    between atoms: _341  and  _342
REMARK  126  A    between atoms: _345  and  _347
REMARK  127  A    between atoms: _347  and  _348
REMARK  128  A    between atoms: _347  and  _350
REMARK  129  A    between atoms: _350  and  _351
REMARK  130  A    between atoms: _351  and  _352
REMARK  131  A    between atoms: _352  and  _353
REMARK  132  A    between atoms: _362  and  _364
REMARK  133  A    between atoms: _364  and  _365
REMARK  134  A    between atoms: _367  and  _369
REMARK  135  A    between atoms: _369  and  _370
REMARK  136  A    between atoms: _369  and  _372
REMARK  137  A    between atoms: _372  and  _373
REMARK                            x       y       z     vdW  Elec       q    Type
REMARK                         _______ _______ _______ _____ _____    ______ ____
ROOT
ATOM      1  O   HOH     1      24.407  63.012  11.846  0.00  0.00    +0.000 OA
ENDROOT
TORSDOF 0
REMARK  Name = ../refined-set-2016/2f7o/2f7o_pocket.pdb
REMARK  137 active torsions:
REMARK  status: ('A' for Active; 'I' for Inactive)
REMARK    1  A    between atoms: _1  and  _3
REMARK    2  A    between atoms: _14  and  _17
REMARK    3  A    between atoms: _17  and  _18
REMARK    4  A    between atoms: _25  and  _26
REMARK    5  A    between atoms: _33  and  _34
REMARK    6  A    between atoms: _39  and  _41
REMARK    7  A    between atoms: _41  and  _42
REMARK    8  A    between atoms: _44  and  _46
REMARK    9  A    between atoms: _46  and  _47
REMARK   10  A    between atoms: _46  and  _49
REMARK   11  A    between atoms: _49  and  _50
REMARK   12  A    between atoms: _60  and  _62
REMARK   13  A    between atoms: _62  and  _63
REMARK   14  A    between atoms: _62  and  _65
REMARK   15  A    between atoms: _65  and  _66
REMARK   16  A    between atoms: _69  and  _71
REMARK   17  A    between atoms: _71  and  _72
REMARK   18  A    between atoms: _71  and  _74
REMARK   19  A    between atoms: _74  and  _75
REMARK   20  A    between atoms: _80  and  _81
REMARK   21  A    between atoms: _83  and  _85
REMARK   22  A    between atoms: _85  and  _86
REMARK   23  A    between atoms: _85  and  _88
REMARK   24  A    between atoms: _88  and  _89
REMARK   25  A    between atoms: _89  and  _90
REMARK   26  A    between atoms: _93  and  _95
REMARK   27  A    between atoms: _95  and  _96
REMARK   28  A    between atoms: _95  and  _98
REMARK   29  A    between atoms: _98  and  _99
REMARK   30  A    between atoms: _99  and  _100
REMARK   31  A    between atoms: _102  and  _104
REMARK   32  A    between atoms: _104  and  _105
REMARK   33  A    between atoms: _104  and  _107
REMARK   34  A    between atoms: _107  and  _108
REMARK   35  A    between atoms: _111  and  _113
REMARK   36  A    between atoms: _113  and  _114
REMARK   37  A    between atoms: _113  and  _116
REMARK   38  A    between atoms: _116  and  _117
REMARK   39  A    between atoms: _117  and  _119
REMARK   40  A    between atoms: _119  and  ZN_376
REMARK   41  A    between atoms: _121  and  _122
REMARK   42  A    between atoms: _127  and  _129
REMARK   43  A    between atoms: _129  and  _130
REMARK   44  A    between atoms: _129  and  _132
REMARK   45  A    between atoms: _132  and  _133
REMARK   46  A    between atoms: _139  and  _141
REMARK   47  A    between atoms: _141  and  _142
REMARK   48  A    between atoms: _141  and  _144
REMARK   49  A    between atoms: _144  and  _145
REMARK   50  A    between atoms: _145  and  _146
REMARK   51  A    between atoms: _146  and  _147
REMARK   52  A    between atoms: _156  and  _158
REMARK   53  A    between atoms: _158  and  _159
REMARK   54  A    between atoms: _158  and  _161
REMARK   55  A    between atoms: _161  and  _162
REMARK   56  A    between atoms: _167  and  _168
REMARK   57  A    between atoms: _170  and  _172
REMARK   58  A    between atoms: _172  and  _173
REMARK   59  A    between atoms: _172  and  _175
REMARK   60  A    between atoms: _175  and  _176
REMARK   61  A    between atoms: _178  and  _180
REMARK   62  A    between atoms: _180  and  _181
REMARK   63  A    between atoms: _180  and  _183
REMARK   64  A    between atoms: _183  and  _184
REMARK   65  A    between atoms: _189  and  _190
REMARK   66  A    between atoms: _192  and  _194
REMARK   67  A    between atoms: _194  and  _195
REMARK   68  A    between atoms: _194  and  _197
REMARK   69  A    between atoms: _197  and  _198
REMARK   70  A    between atoms: _201  and  _203
REMARK   71  A    between atoms: _203  and  _204
REMARK   72  A    between atoms: _203  and  _206
REMARK   73  A    between atoms: _206  and  _207
REMARK   74  A    between atoms: _210  and  _212
REMARK   75  A    between atoms: _212  and  _213
REMARK   76  A    between atoms: _212  and  _215
REMARK   77  A    between atoms: _215  and  _216
REMARK   78  A    between atoms: _222  and  _224
REMARK   79  A    between atoms: _224  and  _225
REMARK   80  A    between atoms: _224  and  _227
REMARK   81  A    between atoms: _227  and  _228
REMARK   82  A    between atoms: _233  and  _234
REMARK   83  A    between atoms: _236  and  _238
REMARK   84  A    between atoms: _238  and  _239
REMARK   85  A    between atoms: _238  and  _241
REMARK   86  A    between atoms: _241  and  _242
REMARK   87  A    between atoms: _245  and  _247
REMARK   88  A    between atoms: _247  and  _248
REMARK   89  A    between atoms: _247  and  _250
REMARK   90  A    between atoms: _250  and  _251
REMARK   91  A    between atoms: _261  and  _263
REMARK   92  A    between atoms: _263  and  _264
REMARK   93  A    between atoms: _263  and  _266
REMARK   94  A    between atoms: _266  and  _267
REMARK   95  A    between atoms: _272  and  _274
REMARK   96  A    between atoms: _274  and  _275
REMARK   97  A    between atoms: _274  and  _277
REMARK   98  A    between atoms: _277  and  _278
REMARK   99  A    between atoms: _282  and  ZN_376
REMARK  100  A    between atoms: _283  and  _285
REMARK  101  A    between atoms: _285  and  _286
REMARK  102  A    between atoms: _285  and  _288
REMARK  103  A    between atoms: _288  and  _289
REMARK  104  A    between atoms: _292  and  _294
REMARK  105  A    between atoms: _294  and  _295
REMARK  106  A    between atoms: _297  and  _299
REMARK  107  A    between atoms: _299  and  _300
REMARK  108  A    between atoms: _299  and  _302
REMARK  109  A    between atoms: _302  and  _303
REMARK  110  A    between atoms: _306  and  _308
REMARK  111  A    between atoms: _308  and  _309
REMARK  112  A    between atoms: _308  and  _311
REMARK  113  A    between atoms: _311  and  _312
REMARK  114  A    between atoms: _315  and  _317
REMARK  115  A    between atoms: _317  and  _318
REMARK  116  A    between atoms: _321  and  _323
REMARK  117  A    between atoms: _323  and  _324
REMARK  118  A    between atoms: _323  and  _326
REMARK  119  A    between atoms: _326  and  _327
REMARK  120  A    between atoms: _332  and  _333
REMARK  121  A    between atoms: _335  and  _337
REMARK  122  A    between atoms: _337  and  _338
REMARK  123  A    between atoms: _337  and  _340
REMARK  124  A    between atoms: _340  and  _341
REMARK  125  A    between atoms: _341  and  _342
REMARK  126  A    between atoms: _345  and  _347
REMARK  127  A    between atoms: _347  and  _348
REMARK  128  A    between atoms: _347  and  _350
REMARK  129  A    between atoms: _350  and  _351
REMARK  130  A    between atoms: _351  and  _352
REMARK  131  A    between atoms: _352  and  _353
REMARK  132  A    between atoms: _362  and  _364
REMARK  133  A    between atoms: _364  and  _365
REMARK  134  A    between atoms: _367  and  _369
REMARK  135  A    between atoms: _369  and  _370
REMARK  136  A    between atoms: _369  and  _372
REMARK  137  A    between atoms: _372  and  _373
REMARK                            x       y       z     vdW  Elec       q    Type
REMARK                         _______ _______ _______ _____ _____    ______ ____
ROOT
ATOM      1  O   HOH     1      22.246  65.033  12.079  0.00  0.00    +0.000 OA
ENDROOT
TORSDOF 0
REMARK  Name = ../refined-set-2016/2f7o/2f7o_pocket.pdb
REMARK  137 active torsions:
REMARK  status: ('A' for Active; 'I' for Inactive)
REMARK    1  A    between atoms: _1  and  _3
REMARK    2  A    between atoms: _14  and  _17
REMARK    3  A    between atoms: _17  and  _18
REMARK    4  A    between atoms: _25  and  _26
REMARK    5  A    between atoms: _33  and  _34
REMARK    6  A    between atoms: _39  and  _41
REMARK    7  A    between atoms: _41  and  _42
REMARK    8  A    between atoms: _44  and  _46
REMARK    9  A    between atoms: _46  and  _47
REMARK   10  A    between atoms: _46  and  _49
REMARK   11  A    between atoms: _49  and  _50
REMARK   12  A    between atoms: _60  and  _62
REMARK   13  A    between atoms: _62  and  _63
REMARK   14  A    between atoms: _62  and  _65
REMARK   15  A    between atoms: _65  and  _66
REMARK   16  A    between atoms: _69  and  _71
REMARK   17  A    between atoms: _71  and  _72
REMARK   18  A    between atoms: _71  and  _74
REMARK   19  A    between atoms: _74  and  _75
REMARK   20  A    between atoms: _80  and  _81
REMARK   21  A    between atoms: _83  and  _85
REMARK   22  A    between atoms: _85  and  _86
REMARK   23  A    between atoms: _85  and  _88
REMARK   24  A    between atoms: _88  and  _89
REMARK   25  A    between atoms: _89  and  _90
REMARK   26  A    between atoms: _93  and  _95
REMARK   27  A    between atoms: _95  and  _96
REMARK   28  A    between atoms: _95  and  _98
REMARK   29  A    between atoms: _98  and  _99
REMARK   30  A    between atoms: _99  and  _100
REMARK   31  A    between atoms: _102  and  _104
REMARK   32  A    between atoms: _104  and  _105
REMARK   33  A    between atoms: _104  and  _107
REMARK   34  A    between atoms: _107  and  _108
REMARK   35  A    between atoms: _111  and  _113
REMARK   36  A    between atoms: _113  and  _114
REMARK   37  A    between atoms: _113  and  _116
REMARK   38  A    between atoms: _116  and  _117
REMARK   39  A    between atoms: _117  and  _119
REMARK   40  A    between atoms: _119  and  ZN_376
REMARK   41  A    between atoms: _121  and  _122
REMARK   42  A    between atoms: _127  and  _129
REMARK   43  A    between atoms: _129  and  _130
REMARK   44  A    between atoms: _129  and  _132
REMARK   45  A    between atoms: _132  and  _133
REMARK   46  A    between atoms: _139  and  _141
REMARK   47  A    between atoms: _141  and  _142
REMARK   48  A    between atoms: _141  and  _144
REMARK   49  A    between atoms: _144  and  _145
REMARK   50  A    between atoms: _145  and  _146
REMARK   51  A    between atoms: _146  and  _147
REMARK   52  A    between atoms: _156  and  _158
REMARK   53  A    between atoms: _158  and  _159
REMARK   54  A    between atoms: _158  and  _161
REMARK   55  A    between atoms: _161  and  _162
REMARK   56  A    between atoms: _167  and  _168
REMARK   57  A    between atoms: _170  and  _172
REMARK   58  A    between atoms: _172  and  _173
REMARK   59  A    between atoms: _172  and  _175
REMARK   60  A    between atoms: _175  and  _176
REMARK   61  A    between atoms: _178  and  _180
REMARK   62  A    between atoms: _180  and  _181
REMARK   63  A    between atoms: _180  and  _183
REMARK   64  A    between atoms: _183  and  _184
REMARK   65  A    between atoms: _189  and  _190
REMARK   66  A    between atoms: _192  and  _194
REMARK   67  A    between atoms: _194  and  _195
REMARK   68  A    between atoms: _194  and  _197
REMARK   69  A    between atoms: _197  and  _198
REMARK   70  A    between atoms: _201  and  _203
REMARK   71  A    between atoms: _203  and  _204
REMARK   72  A    between atoms: _203  and  _206
REMARK   73  A    between atoms: _206  and  _207
REMARK   74  A    between atoms: _210  and  _212
REMARK   75  A    between atoms: _212  and  _213
REMARK   76  A    between atoms: _212  and  _215
REMARK   77  A    between atoms: _215  and  _216
REMARK   78  A    between atoms: _222  and  _224
REMARK   79  A    between atoms: _224  and  _225
REMARK   80  A    between atoms: _224  and  _227
REMARK   81  A    between atoms: _227  and  _228
REMARK   82  A    between atoms: _233  and  _234
REMARK   83  A    between atoms: _236  and  _238
REMARK   84  A    between atoms: _238  and  _239
REMARK   85  A    between atoms: _238  and  _241
REMARK   86  A    between atoms: _241  and  _242
REMARK   87  A    between atoms: _245  and  _247
REMARK   88  A    between atoms: _247  and  _248
REMARK   89  A    between atoms: _247  and  _250
REMARK   90  A    between atoms: _250  and  _251
REMARK   91  A    between atoms: _261  and  _263
REMARK   92  A    between atoms: _263  and  _264
REMARK   93  A    between atoms: _263  and  _266
REMARK   94  A    between atoms: _266  and  _267
REMARK   95  A    between atoms: _272  and  _274
REMARK   96  A    between atoms: _274  and  _275
REMARK   97  A    between atoms: _274  and  _277
REMARK   98  A    between atoms: _277  and  _278
REMARK   99  A    between atoms: _282  and  ZN_376
REMARK  100  A    between atoms: _283  and  _285
REMARK  101  A    between atoms: _285  and  _286
REMARK  102  A    between atoms: _285  and  _288
REMARK  103  A    between atoms: _288  and  _289
REMARK  104  A    between atoms: _292  and  _294
REMARK  105  A    between atoms: _294  and  _295
REMARK  106  A    between atoms: _297  and  _299
REMARK  107  A    between atoms: _299  and  _300
REMARK  108  A    between atoms: _299  and  _302
REMARK  109  A    between atoms: _302  and  _303
REMARK  110  A    between atoms: _306  and  _308
REMARK  111  A    between atoms: _308  and  _309
REMARK  112  A    between atoms: _308  and  _311
REMARK  113  A    between atoms: _311  and  _312
REMARK  114  A    between atoms: _315  and  _317
REMARK  115  A    between atoms: _317  and  _318
REMARK  116  A    between atoms: _321  and  _323
REMARK  117  A    between atoms: _323  and  _324
REMARK  118  A    between atoms: _323  and  _326
REMARK  119  A    between atoms: _326  and  _327
REMARK  120  A    between atoms: _332  and  _333
REMARK  121  A    between atoms: _335  and  _337
REMARK  122  A    between atoms: _337  and  _338
REMARK  123  A    between atoms: _337  and  _340
REMARK  124  A    between atoms: _340  and  _341
REMARK  125  A    between atoms: _341  and  _342
REMARK  126  A    between atoms: _345  and  _347
REMARK  127  A    between atoms: _347  and  _348
REMARK  128  A    between atoms: _347  and  _350
REMARK  129  A    between atoms: _350  and  _351
REMARK  130  A    between atoms: _351  and  _352
REMARK  131  A    between atoms: _352  and  _353
REMARK  132  A    between atoms: _362  and  _364
REMARK  133  A    between atoms: _364  and  _365
REMARK  134  A    between atoms: _367  and  _369
REMARK  135  A    between atoms: _369  and  _370
REMARK  136  A    between atoms: _369  and  _372
REMARK  137  A    between atoms: _372  and  _373
REMARK                            x       y       z     vdW  Elec       q    Type
REMARK                         _______ _______ _______ _____ _____    ______ ____
ROOT
ATOM      1  O   HOH     1      22.837  66.047  14.359  0.00  0.00    +0.000 OA
ENDROOT
TORSDOF 0
REMARK  Name = ../refined-set-2016/2f7o/2f7o_pocket.pdb
REMARK  137 active torsions:
REMARK  status: ('A' for Active; 'I' for Inactive)
REMARK    1  A    between atoms: _1  and  _3
REMARK    2  A    between atoms: _14  and  _17
REMARK    3  A    between atoms: _17  and  _18
REMARK    4  A    between atoms: _25  and  _26
REMARK    5  A    between atoms: _33  and  _34
REMARK    6  A    between atoms: _39  and  _41
REMARK    7  A    between atoms: _41  and  _42
REMARK    8  A    between atoms: _44  and  _46
REMARK    9  A    between atoms: _46  and  _47
REMARK   10  A    between atoms: _46  and  _49
REMARK   11  A    between atoms: _49  and  _50
REMARK   12  A    between atoms: _60  and  _62
REMARK   13  A    between atoms: _62  and  _63
REMARK   14  A    between atoms: _62  and  _65
REMARK   15  A    between atoms: _65  and  _66
REMARK   16  A    between atoms: _69  and  _71
REMARK   17  A    between atoms: _71  and  _72
REMARK   18  A    between atoms: _71  and  _74
REMARK   19  A    between atoms: _74  and  _75
REMARK   20  A    between atoms: _80  and  _81
REMARK   21  A    between atoms: _83  and  _85
REMARK   22  A    between atoms: _85  and  _86
REMARK   23  A    between atoms: _85  and  _88
REMARK   24  A    between atoms: _88  and  _89
REMARK   25  A    between atoms: _89  and  _90
REMARK   26  A    between atoms: _93  and  _95
REMARK   27  A    between atoms: _95  and  _96
REMARK   28  A    between atoms: _95  and  _98
REMARK   29  A    between atoms: _98  and  _99
REMARK   30  A    between atoms: _99  and  _100
REMARK   31  A    between atoms: _102  and  _104
REMARK   32  A    between atoms: _104  and  _105
REMARK   33  A    between atoms: _104  and  _107
REMARK   34  A    between atoms: _107  and  _108
REMARK   35  A    between atoms: _111  and  _113
REMARK   36  A    between atoms: _113  and  _114
REMARK   37  A    between atoms: _113  and  _116
REMARK   38  A    between atoms: _116  and  _117
REMARK   39  A    between atoms: _117  and  _119
REMARK   40  A    between atoms: _119  and  ZN_376
REMARK   41  A    between atoms: _121  and  _122
REMARK   42  A    between atoms: _127  and  _129
REMARK   43  A    between atoms: _129  and  _130
REMARK   44  A    between atoms: _129  and  _132
REMARK   45  A    between atoms: _132  and  _133
REMARK   46  A    between atoms: _139  and  _141
REMARK   47  A    between atoms: _141  and  _142
REMARK   48  A    between atoms: _141  and  _144
REMARK   49  A    between atoms: _144  and  _145
REMARK   50  A    between atoms: _145  and  _146
REMARK   51  A    between atoms: _146  and  _147
REMARK   52  A    between atoms: _156  and  _158
REMARK   53  A    between atoms: _158  and  _159
REMARK   54  A    between atoms: _158  and  _161
REMARK   55  A    between atoms: _161  and  _162
REMARK   56  A    between atoms: _167  and  _168
REMARK   57  A    between atoms: _170  and  _172
REMARK   58  A    between atoms: _172  and  _173
REMARK   59  A    between atoms: _172  and  _175
REMARK   60  A    between atoms: _175  and  _176
REMARK   61  A    between atoms: _178  and  _180
REMARK   62  A    between atoms: _180  and  _181
REMARK   63  A    between atoms: _180  and  _183
REMARK   64  A    between atoms: _183  and  _184
REMARK   65  A    between atoms: _189  and  _190
REMARK   66  A    between atoms: _192  and  _194
REMARK   67  A    between atoms: _194  and  _195
REMARK   68  A    between atoms: _194  and  _197
REMARK   69  A    between atoms: _197  and  _198
REMARK   70  A    between atoms: _201  and  _203
REMARK   71  A    between atoms: _203  and  _204
REMARK   72  A    between atoms: _203  and  _206
REMARK   73  A    between atoms: _206  and  _207
REMARK   74  A    between atoms: _210  and  _212
REMARK   75  A    between atoms: _212  and  _213
REMARK   76  A    between atoms: _212  and  _215
REMARK   77  A    between atoms: _215  and  _216
REMARK   78  A    between atoms: _222  and  _224
REMARK   79  A    between atoms: _224  and  _225
REMARK   80  A    between atoms: _224  and  _227
REMARK   81  A    between atoms: _227  and  _228
REMARK   82  A    between atoms: _233  and  _234
REMARK   83  A    between atoms: _236  and  _238
REMARK   84  A    between atoms: _238  and  _239
REMARK   85  A    between atoms: _238  and  _241
REMARK   86  A    between atoms: _241  and  _242
REMARK   87  A    between atoms: _245  and  _247
REMARK   88  A    between atoms: _247  and  _248
REMARK   89  A    between atoms: _247  and  _250
REMARK   90  A    between atoms: _250  and  _251
REMARK   91  A    between atoms: _261  and  _263
REMARK   92  A    between atoms: _263  and  _264
REMARK   93  A    between atoms: _263  and  _266
REMARK   94  A    between atoms: _266  and  _267
REMARK   95  A    between atoms: _272  and  _274
REMARK   96  A    between atoms: _274  and  _275
REMARK   97  A    between atoms: _274  and  _277
REMARK   98  A    between atoms: _277  and  _278
REMARK   99  A    between atoms: _282  and  ZN_376
REMARK  100  A    between atoms: _283  and  _285
REMARK  101  A    between atoms: _285  and  _286
REMARK  102  A    between atoms: _285  and  _288
REMARK  103  A    between atoms: _288  and  _289
REMARK  104  A    between atoms: _292  and  _294
REMARK  105  A    between atoms: _294  and  _295
REMARK  106  A    between atoms: _297  and  _299
REMARK  107  A    between atoms: _299  and  _300
REMARK  108  A    between atoms: _299  and  _302
REMARK  109  A    between atoms: _302  and  _303
REMARK  110  A    between atoms: _306  and  _308
REMARK  111  A    between atoms: _308  and  _309
REMARK  112  A    between atoms: _308  and  _311
REMARK  113  A    between atoms: _311  and  _312
REMARK  114  A    between atoms: _315  and  _317
REMARK  115  A    between atoms: _317  and  _318
REMARK  116  A    between atoms: _321  and  _323
REMARK  117  A    between atoms: _323  and  _324
REMARK  118  A    between atoms: _323  and  _326
REMARK  119  A    between atoms: _326  and  _327
REMARK  120  A    between atoms: _332  and  _333
REMARK  121  A    between atoms: _335  and  _337
REMARK  122  A    between atoms: _337  and  _338
REMARK  123  A    between atoms: _337  and  _340
REMARK  124  A    between atoms: _340  and  _341
REMARK  125  A    between atoms: _341  and  _342
REMARK  126  A    between atoms: _345  and  _347
REMARK  127  A    between atoms: _347  and  _348
REMARK  128  A    between atoms: _347  and  _350
REMARK  129  A    between atoms: _350  and  _351
REMARK  130  A    between atoms: _351  and  _352
REMARK  131  A    between atoms: _352  and  _353
REMARK  132  A    between atoms: _362  and  _364
REMARK  133  A    between atoms: _364  and  _365
REMARK  134  A    between atoms: _367  and  _369
REMARK  135  A    between atoms: _369  and  _370
REMARK  136  A    between atoms: _369  and  _372
REMARK  137  A    between atoms: _372  and  _373
REMARK                            x       y       z     vdW  Elec       q    Type
REMARK                         _______ _______ _______ _____ _____    ______ ____
ROOT
ATOM      1  O   HOH     1      20.767  65.193   7.827  0.00  0.00    +0.000 OA
ENDROOT
TORSDOF 0
REMARK  Name = ../refined-set-2016/2f7o/2f7o_pocket.pdb
REMARK  137 active torsions:
REMARK  status: ('A' for Active; 'I' for Inactive)
REMARK    1  A    between atoms: _1  and  _3
REMARK    2  A    between atoms: _14  and  _17
REMARK    3  A    between atoms: _17  and  _18
REMARK    4  A    between atoms: _25  and  _26
REMARK    5  A    between atoms: _33  and  _34
REMARK    6  A    between atoms: _39  and  _41
REMARK    7  A    between atoms: _41  and  _42
REMARK    8  A    between atoms: _44  and  _46
REMARK    9  A    between atoms: _46  and  _47
REMARK   10  A    between atoms: _46  and  _49
REMARK   11  A    between atoms: _49  and  _50
REMARK   12  A    between atoms: _60  and  _62
REMARK   13  A    between atoms: _62  and  _63
REMARK   14  A    between atoms: _62  and  _65
REMARK   15  A    between atoms: _65  and  _66
REMARK   16  A    between atoms: _69  and  _71
REMARK   17  A    between atoms: _71  and  _72
REMARK   18  A    between atoms: _71  and  _74
REMARK   19  A    between atoms: _74  and  _75
REMARK   20  A    between atoms: _80  and  _81
REMARK   21  A    between atoms: _83  and  _85
REMARK   22  A    between atoms: _85  and  _86
REMARK   23  A    between atoms: _85  and  _88
REMARK   24  A    between atoms: _88  and  _89
REMARK   25  A    between atoms: _89  and  _90
REMARK   26  A    between atoms: _93  and  _95
REMARK   27  A    between atoms: _95  and  _96
REMARK   28  A    between atoms: _95  and  _98
REMARK   29  A    between atoms: _98  and  _99
REMARK   30  A    between atoms: _99  and  _100
REMARK   31  A    between atoms: _102  and  _104
REMARK   32  A    between atoms: _104  and  _105
REMARK   33  A    between atoms: _104  and  _107
REMARK   34  A    between atoms: _107  and  _108
REMARK   35  A    between atoms: _111  and  _113
REMARK   36  A    between atoms: _113  and  _114
REMARK   37  A    between atoms: _113  and  _116
REMARK   38  A    between atoms: _116  and  _117
REMARK   39  A    between atoms: _117  and  _119
REMARK   40  A    between atoms: _119  and  ZN_376
REMARK   41  A    between atoms: _121  and  _122
REMARK   42  A    between atoms: _127  and  _129
REMARK   43  A    between atoms: _129  and  _130
REMARK   44  A    between atoms: _129  and  _132
REMARK   45  A    between atoms: _132  and  _133
REMARK   46  A    between atoms: _139  and  _141
REMARK   47  A    between atoms: _141  and  _142
REMARK   48  A    between atoms: _141  and  _144
REMARK   49  A    between atoms: _144  and  _145
REMARK   50  A    between atoms: _145  and  _146
REMARK   51  A    between atoms: _146  and  _147
REMARK   52  A    between atoms: _156  and  _158
REMARK   53  A    between atoms: _158  and  _159
REMARK   54  A    between atoms: _158  and  _161
REMARK   55  A    between atoms: _161  and  _162
REMARK   56  A    between atoms: _167  and  _168
REMARK   57  A    between atoms: _170  and  _172
REMARK   58  A    between atoms: _172  and  _173
REMARK   59  A    between atoms: _172  and  _175
REMARK   60  A    between atoms: _175  and  _176
REMARK   61  A    between atoms: _178  and  _180
REMARK   62  A    between atoms: _180  and  _181
REMARK   63  A    between atoms: _180  and  _183
REMARK   64  A    between atoms: _183  and  _184
REMARK   65  A    between atoms: _189  and  _190
REMARK   66  A    between atoms: _192  and  _194
REMARK   67  A    between atoms: _194  and  _195
REMARK   68  A    between atoms: _194  and  _197
REMARK   69  A    between atoms: _197  and  _198
REMARK   70  A    between atoms: _201  and  _203
REMARK   71  A    between atoms: _203  and  _204
REMARK   72  A    between atoms: _203  and  _206
REMARK   73  A    between atoms: _206  and  _207
REMARK   74  A    between atoms: _210  and  _212
REMARK   75  A    between atoms: _212  and  _213
REMARK   76  A    between atoms: _212  and  _215
REMARK   77  A    between atoms: _215  and  _216
REMARK   78  A    between atoms: _222  and  _224
REMARK   79  A    between atoms: _224  and  _225
REMARK   80  A    between atoms: _224  and  _227
REMARK   81  A    between atoms: _227  and  _228
REMARK   82  A    between atoms: _233  and  _234
REMARK   83  A    between atoms: _236  and  _238
REMARK   84  A    between atoms: _238  and  _239
REMARK   85  A    between atoms: _238  and  _241
REMARK   86  A    between atoms: _241  and  _242
REMARK   87  A    between atoms: _245  and  _247
REMARK   88  A    between atoms: _247  and  _248
REMARK   89  A    between atoms: _247  and  _250
REMARK   90  A    between atoms: _250  and  _251
REMARK   91  A    between atoms: _261  and  _263
REMARK   92  A    between atoms: _263  and  _264
REMARK   93  A    between atoms: _263  and  _266
REMARK   94  A    between atoms: _266  and  _267
REMARK   95  A    between atoms: _272  and  _274
REMARK   96  A    between atoms: _274  and  _275
REMARK   97  A    between atoms: _274  and  _277
REMARK   98  A    between atoms: _277  and  _278
REMARK   99  A    between atoms: _282  and  ZN_376
REMARK  100  A    between atoms: _283  and  _285
REMARK  101  A    between atoms: _285  and  _286
REMARK  102  A    between atoms: _285  and  _288
REMARK  103  A    between atoms: _288  and  _289
REMARK  104  A    between atoms: _292  and  _294
REMARK  105  A    between atoms: _294  and  _295
REMARK  106  A    between atoms: _297  and  _299
REMARK  107  A    between atoms: _299  and  _300
REMARK  108  A    between atoms: _299  and  _302
REMARK  109  A    between atoms: _302  and  _303
REMARK  110  A    between atoms: _306  and  _308
REMARK  111  A    between atoms: _308  and  _309
REMARK  112  A    between atoms: _308  and  _311
REMARK  113  A    between atoms: _311  and  _312
REMARK  114  A    between atoms: _315  and  _317
REMARK  115  A    between atoms: _317  and  _318
REMARK  116  A    between atoms: _321  and  _323
REMARK  117  A    between atoms: _323  and  _324
REMARK  118  A    between atoms: _323  and  _326
REMARK  119  A    between atoms: _326  and  _327
REMARK  120  A    between atoms: _332  and  _333
REMARK  121  A    between atoms: _335  and  _337
REMARK  122  A    between atoms: _337  and  _338
REMARK  123  A    between atoms: _337  and  _340
REMARK  124  A    between atoms: _340  and  _341
REMARK  125  A    between atoms: _341  and  _342
REMARK  126  A    between atoms: _345  and  _347
REMARK  127  A    between atoms: _347  and  _348
REMARK  128  A    between atoms: _347  and  _350
REMARK  129  A    between atoms: _350  and  _351
REMARK  130  A    between atoms: _351  and  _352
REMARK  131  A    between atoms: _352  and  _353
REMARK  132  A    between atoms: _362  and  _364
REMARK  133  A    between atoms: _364  and  _365
REMARK  134  A    between atoms: _367  and  _369
REMARK  135  A    between atoms: _369  and  _370
REMARK  136  A    between atoms: _369  and  _372
REMARK  137  A    between atoms: _372  and  _373
REMARK                            x       y       z     vdW  Elec       q    Type
REMARK                         _______ _______ _______ _____ _____    ______ ____
ROOT
ATOM      1  O   HOH     1      26.028  72.475   5.992  0.00  0.00    +0.000 OA
ENDROOT
TORSDOF 0
REMARK  Name = ../refined-set-2016/2f7o/2f7o_pocket.pdb
REMARK  137 active torsions:
REMARK  status: ('A' for Active; 'I' for Inactive)
REMARK    1  A    between atoms: _1  and  _3
REMARK    2  A    between atoms: _14  and  _17
REMARK    3  A    between atoms: _17  and  _18
REMARK    4  A    between atoms: _25  and  _26
REMARK    5  A    between atoms: _33  and  _34
REMARK    6  A    between atoms: _39  and  _41
REMARK    7  A    between atoms: _41  and  _42
REMARK    8  A    between atoms: _44  and  _46
REMARK    9  A    between atoms: _46  and  _47
REMARK   10  A    between atoms: _46  and  _49
REMARK   11  A    between atoms: _49  and  _50
REMARK   12  A    between atoms: _60  and  _62
REMARK   13  A    between atoms: _62  and  _63
REMARK   14  A    between atoms: _62  and  _65
REMARK   15  A    between atoms: _65  and  _66
REMARK   16  A    between atoms: _69  and  _71
REMARK   17  A    between atoms: _71  and  _72
REMARK   18  A    between atoms: _71  and  _74
REMARK   19  A    between atoms: _74  and  _75
REMARK   20  A    between atoms: _80  and  _81
REMARK   21  A    between atoms: _83  and  _85
REMARK   22  A    between atoms: _85  and  _86
REMARK   23  A    between atoms: _85  and  _88
REMARK   24  A    between atoms: _88  and  _89
REMARK   25  A    between atoms: _89  and  _90
REMARK   26  A    between atoms: _93  and  _95
REMARK   27  A    between atoms: _95  and  _96
REMARK   28  A    between atoms: _95  and  _98
REMARK   29  A    between atoms: _98  and  _99
REMARK   30  A    between atoms: _99  and  _100
REMARK   31  A    between atoms: _102  and  _104
REMARK   32  A    between atoms: _104  and  _105
REMARK   33  A    between atoms: _104  and  _107
REMARK   34  A    between atoms: _107  and  _108
REMARK   35  A    between atoms: _111  and  _113
REMARK   36  A    between atoms: _113  and  _114
REMARK   37  A    between atoms: _113  and  _116
REMARK   38  A    between atoms: _116  and  _117
REMARK   39  A    between atoms: _117  and  _119
REMARK   40  A    between atoms: _119  and  ZN_376
REMARK   41  A    between atoms: _121  and  _122
REMARK   42  A    between atoms: _127  and  _129
REMARK   43  A    between atoms: _129  and  _130
REMARK   44  A    between atoms: _129  and  _132
REMARK   45  A    between atoms: _132  and  _133
REMARK   46  A    between atoms: _139  and  _141
REMARK   47  A    between atoms: _141  and  _142
REMARK   48  A    between atoms: _141  and  _144
REMARK   49  A    between atoms: _144  and  _145
REMARK   50  A    between atoms: _145  and  _146
REMARK   51  A    between atoms: _146  and  _147
REMARK   52  A    between atoms: _156  and  _158
REMARK   53  A    between atoms: _158  and  _159
REMARK   54  A    between atoms: _158  and  _161
REMARK   55  A    between atoms: _161  and  _162
REMARK   56  A    between atoms: _167  and  _168
REMARK   57  A    between atoms: _170  and  _172
REMARK   58  A    between atoms: _172  and  _173
REMARK   59  A    between atoms: _172  and  _175
REMARK   60  A    between atoms: _175  and  _176
REMARK   61  A    between atoms: _178  and  _180
REMARK   62  A    between atoms: _180  and  _181
REMARK   63  A    between atoms: _180  and  _183
REMARK   64  A    between atoms: _183  and  _184
REMARK   65  A    between atoms: _189  and  _190
REMARK   66  A    between atoms: _192  and  _194
REMARK   67  A    between atoms: _194  and  _195
REMARK   68  A    between atoms: _194  and  _197
REMARK   69  A    between atoms: _197  and  _198
REMARK   70  A    between atoms: _201  and  _203
REMARK   71  A    between atoms: _203  and  _204
REMARK   72  A    between atoms: _203  and  _206
REMARK   73  A    between atoms: _206  and  _207
REMARK   74  A    between atoms: _210  and  _212
REMARK   75  A    between atoms: _212  and  _213
REMARK   76  A    between atoms: _212  and  _215
REMARK   77  A    between atoms: _215  and  _216
REMARK   78  A    between atoms: _222  and  _224
REMARK   79  A    between atoms: _224  and  _225
REMARK   80  A    between atoms: _224  and  _227
REMARK   81  A    between atoms: _227  and  _228
REMARK   82  A    between atoms: _233  and  _234
REMARK   83  A    between atoms: _236  and  _238
REMARK   84  A    between atoms: _238  and  _239
REMARK   85  A    between atoms: _238  and  _241
REMARK   86  A    between atoms: _241  and  _242
REMARK   87  A    between atoms: _245  and  _247
REMARK   88  A    between atoms: _247  and  _248
REMARK   89  A    between atoms: _247  and  _250
REMARK   90  A    between atoms: _250  and  _251
REMARK   91  A    between atoms: _261  and  _263
REMARK   92  A    between atoms: _263  and  _264
REMARK   93  A    between atoms: _263  and  _266
REMARK   94  A    between atoms: _266  and  _267
REMARK   95  A    between atoms: _272  and  _274
REMARK   96  A    between atoms: _274  and  _275
REMARK   97  A    between atoms: _274  and  _277
REMARK   98  A    between atoms: _277  and  _278
REMARK   99  A    between atoms: _282  and  ZN_376
REMARK  100  A    between atoms: _283  and  _285
REMARK  101  A    between atoms: _285  and  _286
REMARK  102  A    between atoms: _285  and  _288
REMARK  103  A    between atoms: _288  and  _289
REMARK  104  A    between atoms: _292  and  _294
REMARK  105  A    between atoms: _294  and  _295
REMARK  106  A    between atoms: _297  and  _299
REMARK  107  A    between atoms: _299  and  _300
REMARK  108  A    between atoms: _299  and  _302
REMARK  109  A    between atoms: _302  and  _303
REMARK  110  A    between atoms: _306  and  _308
REMARK  111  A    between atoms: _308  and  _309
REMARK  112  A    between atoms: _308  and  _311
REMARK  113  A    between atoms: _311  and  _312
REMARK  114  A    between atoms: _315  and  _317
REMARK  115  A    between atoms: _317  and  _318
REMARK  116  A    between atoms: _321  and  _323
REMARK  117  A    between atoms: _323  and  _324
REMARK  118  A    between atoms: _323  and  _326
REMARK  119  A    between atoms: _326  and  _327
REMARK  120  A    between atoms: _332  and  _333
REMARK  121  A    between atoms: _335  and  _337
REMARK  122  A    between atoms: _337  and  _338
REMARK  123  A    between atoms: _337  and  _340
REMARK  124  A    between atoms: _340  and  _341
REMARK  125  A    between atoms: _341  and  _342
REMARK  126  A    between atoms: _345  and  _347
REMARK  127  A    between atoms: _347  and  _348
REMARK  128  A    between atoms: _347  and  _350
REMARK  129  A    between atoms: _350  and  _351
REMARK  130  A    between atoms: _351  and  _352
REMARK  131  A    between atoms: _352  and  _353
REMARK  132  A    between atoms: _362  and  _364
REMARK  133  A    between atoms: _364  and  _365
REMARK  134  A    between atoms: _367  and  _369
REMARK  135  A    between atoms: _369  and  _370
REMARK  136  A    between atoms: _369  and  _372
REMARK  137  A    between atoms: _372  and  _373
REMARK                            x       y       z     vdW  Elec       q    Type
REMARK                         _______ _______ _______ _____ _____    ______ ____
ROOT
ATOM      1  O   HOH     1      33.159  62.677   0.377  0.00  0.00    +0.000 OA
ENDROOT
TORSDOF 0
REMARK  Name = ../refined-set-2016/2f7o/2f7o_pocket.pdb
REMARK  137 active torsions:
REMARK  status: ('A' for Active; 'I' for Inactive)
REMARK    1  A    between atoms: _1  and  _3
REMARK    2  A    between atoms: _14  and  _17
REMARK    3  A    between atoms: _17  and  _18
REMARK    4  A    between atoms: _25  and  _26
REMARK    5  A    between atoms: _33  and  _34
REMARK    6  A    between atoms: _39  and  _41
REMARK    7  A    between atoms: _41  and  _42
REMARK    8  A    between atoms: _44  and  _46
REMARK    9  A    between atoms: _46  and  _47
REMARK   10  A    between atoms: _46  and  _49
REMARK   11  A    between atoms: _49  and  _50
REMARK   12  A    between atoms: _60  and  _62
REMARK   13  A    between atoms: _62  and  _63
REMARK   14  A    between atoms: _62  and  _65
REMARK   15  A    between atoms: _65  and  _66
REMARK   16  A    between atoms: _69  and  _71
REMARK   17  A    between atoms: _71  and  _72
REMARK   18  A    between atoms: _71  and  _74
REMARK   19  A    between atoms: _74  and  _75
REMARK   20  A    between atoms: _80  and  _81
REMARK   21  A    between atoms: _83  and  _85
REMARK   22  A    between atoms: _85  and  _86
REMARK   23  A    between atoms: _85  and  _88
REMARK   24  A    between atoms: _88  and  _89
REMARK   25  A    between atoms: _89  and  _90
REMARK   26  A    between atoms: _93  and  _95
REMARK   27  A    between atoms: _95  and  _96
REMARK   28  A    between atoms: _95  and  _98
REMARK   29  A    between atoms: _98  and  _99
REMARK   30  A    between atoms: _99  and  _100
REMARK   31  A    between atoms: _102  and  _104
REMARK   32  A    between atoms: _104  and  _105
REMARK   33  A    between atoms: _104  and  _107
REMARK   34  A    between atoms: _107  and  _108
REMARK   35  A    between atoms: _111  and  _113
REMARK   36  A    between atoms: _113  and  _114
REMARK   37  A    between atoms: _113  and  _116
REMARK   38  A    between atoms: _116  and  _117
REMARK   39  A    between atoms: _117  and  _119
REMARK   40  A    between atoms: _119  and  ZN_376
REMARK   41  A    between atoms: _121  and  _122
REMARK   42  A    between atoms: _127  and  _129
REMARK   43  A    between atoms: _129  and  _130
REMARK   44  A    between atoms: _129  and  _132
REMARK   45  A    between atoms: _132  and  _133
REMARK   46  A    between atoms: _139  and  _141
REMARK   47  A    between atoms: _141  and  _142
REMARK   48  A    between atoms: _141  and  _144
REMARK   49  A    between atoms: _144  and  _145
REMARK   50  A    between atoms: _145  and  _146
REMARK   51  A    between atoms: _146  and  _147
REMARK   52  A    between atoms: _156  and  _158
REMARK   53  A    between atoms: _158  and  _159
REMARK   54  A    between atoms: _158  and  _161
REMARK   55  A    between atoms: _161  and  _162
REMARK   56  A    between atoms: _167  and  _168
REMARK   57  A    between atoms: _170  and  _172
REMARK   58  A    between atoms: _172  and  _173
REMARK   59  A    between atoms: _172  and  _175
REMARK   60  A    between atoms: _175  and  _176
REMARK   61  A    between atoms: _178  and  _180
REMARK   62  A    between atoms: _180  and  _181
REMARK   63  A    between atoms: _180  and  _183
REMARK   64  A    between atoms: _183  and  _184
REMARK   65  A    between atoms: _189  and  _190
REMARK   66  A    between atoms: _192  and  _194
REMARK   67  A    between atoms: _194  and  _195
REMARK   68  A    between atoms: _194  and  _197
REMARK   69  A    between atoms: _197  and  _198
REMARK   70  A    between atoms: _201  and  _203
REMARK   71  A    between atoms: _203  and  _204
REMARK   72  A    between atoms: _203  and  _206
REMARK   73  A    between atoms: _206  and  _207
REMARK   74  A    between atoms: _210  and  _212
REMARK   75  A    between atoms: _212  and  _213
REMARK   76  A    between atoms: _212  and  _215
REMARK   77  A    between atoms: _215  and  _216
REMARK   78  A    between atoms: _222  and  _224
REMARK   79  A    between atoms: _224  and  _225
REMARK   80  A    between atoms: _224  and  _227
REMARK   81  A    between atoms: _227  and  _228
REMARK   82  A    between atoms: _233  and  _234
REMARK   83  A    between atoms: _236  and  _238
REMARK   84  A    between atoms: _238  and  _239
REMARK   85  A    between atoms: _238  and  _241
REMARK   86  A    between atoms: _241  and  _242
REMARK   87  A    between atoms: _245  and  _247
REMARK   88  A    between atoms: _247  and  _248
REMARK   89  A    between atoms: _247  and  _250
REMARK   90  A    between atoms: _250  and  _251
REMARK   91  A    between atoms: _261  and  _263
REMARK   92  A    between atoms: _263  and  _264
REMARK   93  A    between atoms: _263  and  _266
REMARK   94  A    between atoms: _266  and  _267
REMARK   95  A    between atoms: _272  and  _274
REMARK   96  A    between atoms: _274  and  _275
REMARK   97  A    between atoms: _274  and  _277
REMARK   98  A    between atoms: _277  and  _278
REMARK   99  A    between atoms: _282  and  ZN_376
REMARK  100  A    between atoms: _283  and  _285
REMARK  101  A    between atoms: _285  and  _286
REMARK  102  A    between atoms: _285  and  _288
REMARK  103  A    between atoms: _288  and  _289
REMARK  104  A    between atoms: _292  and  _294
REMARK  105  A    between atoms: _294  and  _295
REMARK  106  A    between atoms: _297  and  _299
REMARK  107  A    between atoms: _299  and  _300
REMARK  108  A    between atoms: _299  and  _302
REMARK  109  A    between atoms: _302  and  _303
REMARK  110  A    between atoms: _306  and  _308
REMARK  111  A    between atoms: _308  and  _309
REMARK  112  A    between atoms: _308  and  _311
REMARK  113  A    between atoms: _311  and  _312
REMARK  114  A    between atoms: _315  and  _317
REMARK  115  A    between atoms: _317  and  _318
REMARK  116  A    between atoms: _321  and  _323
REMARK  117  A    between atoms: _323  and  _324
REMARK  118  A    between atoms: _323  and  _326
REMARK  119  A    between atoms: _326  and  _327
REMARK  120  A    between atoms: _332  and  _333
REMARK  121  A    between atoms: _335  and  _337
REMARK  122  A    between atoms: _337  and  _338
REMARK  123  A    between atoms: _337  and  _340
REMARK  124  A    between atoms: _340  and  _341
REMARK  125  A    between atoms: _341  and  _342
REMARK  126  A    between atoms: _345  and  _347
REMARK  127  A    between atoms: _347  and  _348
REMARK  128  A    between atoms: _347  and  _350
REMARK  129  A    between atoms: _350  and  _351
REMARK  130  A    between atoms: _351  and  _352
REMARK  131  A    between atoms: _352  and  _353
REMARK  132  A    between atoms: _362  and  _364
REMARK  133  A    between atoms: _364  and  _365
REMARK  134  A    between atoms: _367  and  _369
REMARK  135  A    between atoms: _369  and  _370
REMARK  136  A    between atoms: _369  and  _372
REMARK  137  A    between atoms: _372  and  _373
REMARK                            x       y       z     vdW  Elec       q    Type
REMARK                         _______ _______ _______ _____ _____    ______ ____
ROOT
ATOM      1  O   HOH     1      40.342  62.603   6.374  0.00  0.00    +0.000 OA
ENDROOT
TORSDOF 0
REMARK  Name = ../refined-set-2016/2f7o/2f7o_pocket.pdb
REMARK  137 active torsions:
REMARK  status: ('A' for Active; 'I' for Inactive)
REMARK    1  A    between atoms: _1  and  _3
REMARK    2  A    between atoms: _14  and  _17
REMARK    3  A    between atoms: _17  and  _18
REMARK    4  A    between atoms: _25  and  _26
REMARK    5  A    between atoms: _33  and  _34
REMARK    6  A    between atoms: _39  and  _41
REMARK    7  A    between atoms: _41  and  _42
REMARK    8  A    between atoms: _44  and  _46
REMARK    9  A    between atoms: _46  and  _47
REMARK   10  A    between atoms: _46  and  _49
REMARK   11  A    between atoms: _49  and  _50
REMARK   12  A    between atoms: _60  and  _62
REMARK   13  A    between atoms: _62  and  _63
REMARK   14  A    between atoms: _62  and  _65
REMARK   15  A    between atoms: _65  and  _66
REMARK   16  A    between atoms: _69  and  _71
REMARK   17  A    between atoms: _71  and  _72
REMARK   18  A    between atoms: _71  and  _74
REMARK   19  A    between atoms: _74  and  _75
REMARK   20  A    between atoms: _80  and  _81
REMARK   21  A    between atoms: _83  and  _85
REMARK   22  A    between atoms: _85  and  _86
REMARK   23  A    between atoms: _85  and  _88
REMARK   24  A    between atoms: _88  and  _89
REMARK   25  A    between atoms: _89  and  _90
REMARK   26  A    between atoms: _93  and  _95
REMARK   27  A    between atoms: _95  and  _96
REMARK   28  A    between atoms: _95  and  _98
REMARK   29  A    between atoms: _98  and  _99
REMARK   30  A    between atoms: _99  and  _100
REMARK   31  A    between atoms: _102  and  _104
REMARK   32  A    between atoms: _104  and  _105
REMARK   33  A    between atoms: _104  and  _107
REMARK   34  A    between atoms: _107  and  _108
REMARK   35  A    between atoms: _111  and  _113
REMARK   36  A    between atoms: _113  and  _114
REMARK   37  A    between atoms: _113  and  _116
REMARK   38  A    between atoms: _116  and  _117
REMARK   39  A    between atoms: _117  and  _119
REMARK   40  A    between atoms: _119  and  ZN_376
REMARK   41  A    between atoms: _121  and  _122
REMARK   42  A    between atoms: _127  and  _129
REMARK   43  A    between atoms: _129  and  _130
REMARK   44  A    between atoms: _129  and  _132
REMARK   45  A    between atoms: _132  and  _133
REMARK   46  A    between atoms: _139  and  _141
REMARK   47  A    between atoms: _141  and  _142
REMARK   48  A    between atoms: _141  and  _144
REMARK   49  A    between atoms: _144  and  _145
REMARK   50  A    between atoms: _145  and  _146
REMARK   51  A    between atoms: _146  and  _147
REMARK   52  A    between atoms: _156  and  _158
REMARK   53  A    between atoms: _158  and  _159
REMARK   54  A    between atoms: _158  and  _161
REMARK   55  A    between atoms: _161  and  _162
REMARK   56  A    between atoms: _167  and  _168
REMARK   57  A    between atoms: _170  and  _172
REMARK   58  A    between atoms: _172  and  _173
REMARK   59  A    between atoms: _172  and  _175
REMARK   60  A    between atoms: _175  and  _176
REMARK   61  A    between atoms: _178  and  _180
REMARK   62  A    between atoms: _180  and  _181
REMARK   63  A    between atoms: _180  and  _183
REMARK   64  A    between atoms: _183  and  _184
REMARK   65  A    between atoms: _189  and  _190
REMARK   66  A    between atoms: _192  and  _194
REMARK   67  A    between atoms: _194  and  _195
REMARK   68  A    between atoms: _194  and  _197
REMARK   69  A    between atoms: _197  and  _198
REMARK   70  A    between atoms: _201  and  _203
REMARK   71  A    between atoms: _203  and  _204
REMARK   72  A    between atoms: _203  and  _206
REMARK   73  A    between atoms: _206  and  _207
REMARK   74  A    between atoms: _210  and  _212
REMARK   75  A    between atoms: _212  and  _213
REMARK   76  A    between atoms: _212  and  _215
REMARK   77  A    between atoms: _215  and  _216
REMARK   78  A    between atoms: _222  and  _224
REMARK   79  A    between atoms: _224  and  _225
REMARK   80  A    between atoms: _224  and  _227
REMARK   81  A    between atoms: _227  and  _228
REMARK   82  A    between atoms: _233  and  _234
REMARK   83  A    between atoms: _236  and  _238
REMARK   84  A    between atoms: _238  and  _239
REMARK   85  A    between atoms: _238  and  _241
REMARK   86  A    between atoms: _241  and  _242
REMARK   87  A    between atoms: _245  and  _247
REMARK   88  A    between atoms: _247  and  _248
REMARK   89  A    between atoms: _247  and  _250
REMARK   90  A    between atoms: _250  and  _251
REMARK   91  A    between atoms: _261  and  _263
REMARK   92  A    between atoms: _263  and  _264
REMARK   93  A    between atoms: _263  and  _266
REMARK   94  A    between atoms: _266  and  _267
REMARK   95  A    between atoms: _272  and  _274
REMARK   96  A    between atoms: _274  and  _275
REMARK   97  A    between atoms: _274  and  _277
REMARK   98  A    between atoms: _277  and  _278
REMARK   99  A    between atoms: _282  and  ZN_376
REMARK  100  A    between atoms: _283  and  _285
REMARK  101  A    between atoms: _285  and  _286
REMARK  102  A    between atoms: _285  and  _288
REMARK  103  A    between atoms: _288  and  _289
REMARK  104  A    between atoms: _292  and  _294
REMARK  105  A    between atoms: _294  and  _295
REMARK  106  A    between atoms: _297  and  _299
REMARK  107  A    between atoms: _299  and  _300
REMARK  108  A    between atoms: _299  and  _302
REMARK  109  A    between atoms: _302  and  _303
REMARK  110  A    between atoms: _306  and  _308
REMARK  111  A    between atoms: _308  and  _309
REMARK  112  A    between atoms: _308  and  _311
REMARK  113  A    between atoms: _311  and  _312
REMARK  114  A    between atoms: _315  and  _317
REMARK  115  A    between atoms: _317  and  _318
REMARK  116  A    between atoms: _321  and  _323
REMARK  117  A    between atoms: _323  and  _324
REMARK  118  A    between atoms: _323  and  _326
REMARK  119  A    between atoms: _326  and  _327
REMARK  120  A    between atoms: _332  and  _333
REMARK  121  A    between atoms: _335  and  _337
REMARK  122  A    between atoms: _337  and  _338
REMARK  123  A    between atoms: _337  and  _340
REMARK  124  A    between atoms: _340  and  _341
REMARK  125  A    between atoms: _341  and  _342
REMARK  126  A    between atoms: _345  and  _347
REMARK  127  A    between atoms: _347  and  _348
REMARK  128  A    between atoms: _347  and  _350
REMARK  129  A    between atoms: _350  and  _351
REMARK  130  A    between atoms: _351  and  _352
REMARK  131  A    between atoms: _352  and  _353
REMARK  132  A    between atoms: _362  and  _364
REMARK  133  A    between atoms: _364  and  _365
REMARK  134  A    between atoms: _367  and  _369
REMARK  135  A    between atoms: _369  and  _370
REMARK  136  A    between atoms: _369  and  _372
REMARK  137  A    between atoms: _372  and  _373
REMARK                            x       y       z     vdW  Elec       q    Type
REMARK                         _______ _______ _______ _____ _____    ______ ____
ROOT
ATOM      1  O   HOH     1      38.862  62.079   8.673  0.00  0.00    +0.000 OA
ENDROOT
TORSDOF 0
REMARK  Name = ../refined-set-2016/2f7o/2f7o_pocket.pdb
REMARK  137 active torsions:
REMARK  status: ('A' for Active; 'I' for Inactive)
REMARK    1  A    between atoms: _1  and  _3
REMARK    2  A    between atoms: _14  and  _17
REMARK    3  A    between atoms: _17  and  _18
REMARK    4  A    between atoms: _25  and  _26
REMARK    5  A    between atoms: _33  and  _34
REMARK    6  A    between atoms: _39  and  _41
REMARK    7  A    between atoms: _41  and  _42
REMARK    8  A    between atoms: _44  and  _46
REMARK    9  A    between atoms: _46  and  _47
REMARK   10  A    between atoms: _46  and  _49
REMARK   11  A    between atoms: _49  and  _50
REMARK   12  A    between atoms: _60  and  _62
REMARK   13  A    between atoms: _62  and  _63
REMARK   14  A    between atoms: _62  and  _65
REMARK   15  A    between atoms: _65  and  _66
REMARK   16  A    between atoms: _69  and  _71
REMARK   17  A    between atoms: _71  and  _72
REMARK   18  A    between atoms: _71  and  _74
REMARK   19  A    between atoms: _74  and  _75
REMARK   20  A    between atoms: _80  and  _81
REMARK   21  A    between atoms: _83  and  _85
REMARK   22  A    between atoms: _85  and  _86
REMARK   23  A    between atoms: _85  and  _88
REMARK   24  A    between atoms: _88  and  _89
REMARK   25  A    between atoms: _89  and  _90
REMARK   26  A    between atoms: _93  and  _95
REMARK   27  A    between atoms: _95  and  _96
REMARK   28  A    between atoms: _95  and  _98
REMARK   29  A    between atoms: _98  and  _99
REMARK   30  A    between atoms: _99  and  _100
REMARK   31  A    between atoms: _102  and  _104
REMARK   32  A    between atoms: _104  and  _105
REMARK   33  A    between atoms: _104  and  _107
REMARK   34  A    between atoms: _107  and  _108
REMARK   35  A    between atoms: _111  and  _113
REMARK   36  A    between atoms: _113  and  _114
REMARK   37  A    between atoms: _113  and  _116
REMARK   38  A    between atoms: _116  and  _117
REMARK   39  A    between atoms: _117  and  _119
REMARK   40  A    between atoms: _119  and  ZN_376
REMARK   41  A    between atoms: _121  and  _122
REMARK   42  A    between atoms: _127  and  _129
REMARK   43  A    between atoms: _129  and  _130
REMARK   44  A    between atoms: _129  and  _132
REMARK   45  A    between atoms: _132  and  _133
REMARK   46  A    between atoms: _139  and  _141
REMARK   47  A    between atoms: _141  and  _142
REMARK   48  A    between atoms: _141  and  _144
REMARK   49  A    between atoms: _144  and  _145
REMARK   50  A    between atoms: _145  and  _146
REMARK   51  A    between atoms: _146  and  _147
REMARK   52  A    between atoms: _156  and  _158
REMARK   53  A    between atoms: _158  and  _159
REMARK   54  A    between atoms: _158  and  _161
REMARK   55  A    between atoms: _161  and  _162
REMARK   56  A    between atoms: _167  and  _168
REMARK   57  A    between atoms: _170  and  _172
REMARK   58  A    between atoms: _172  and  _173
REMARK   59  A    between atoms: _172  and  _175
REMARK   60  A    between atoms: _175  and  _176
REMARK   61  A    between atoms: _178  and  _180
REMARK   62  A    between atoms: _180  and  _181
REMARK   63  A    between atoms: _180  and  _183
REMARK   64  A    between atoms: _183  and  _184
REMARK   65  A    between atoms: _189  and  _190
REMARK   66  A    between atoms: _192  and  _194
REMARK   67  A    between atoms: _194  and  _195
REMARK   68  A    between atoms: _194  and  _197
REMARK   69  A    between atoms: _197  and  _198
REMARK   70  A    between atoms: _201  and  _203
REMARK   71  A    between atoms: _203  and  _204
REMARK   72  A    between atoms: _203  and  _206
REMARK   73  A    between atoms: _206  and  _207
REMARK   74  A    between atoms: _210  and  _212
REMARK   75  A    between atoms: _212  and  _213
REMARK   76  A    between atoms: _212  and  _215
REMARK   77  A    between atoms: _215  and  _216
REMARK   78  A    between atoms: _222  and  _224
REMARK   79  A    between atoms: _224  and  _225
REMARK   80  A    between atoms: _224  and  _227
REMARK   81  A    between atoms: _227  and  _228
REMARK   82  A    between atoms: _233  and  _234
REMARK   83  A    between atoms: _236  and  _238
REMARK   84  A    between atoms: _238  and  _239
REMARK   85  A    between atoms: _238  and  _241
REMARK   86  A    between atoms: _241  and  _242
REMARK   87  A    between atoms: _245  and  _247
REMARK   88  A    between atoms: _247  and  _248
REMARK   89  A    between atoms: _247  and  _250
REMARK   90  A    between atoms: _250  and  _251
REMARK   91  A    between atoms: _261  and  _263
REMARK   92  A    between atoms: _263  and  _264
REMARK   93  A    between atoms: _263  and  _266
REMARK   94  A    between atoms: _266  and  _267
REMARK   95  A    between atoms: _272  and  _274
REMARK   96  A    between atoms: _274  and  _275
REMARK   97  A    between atoms: _274  and  _277
REMARK   98  A    between atoms: _277  and  _278
REMARK   99  A    between atoms: _282  and  ZN_376
REMARK  100  A    between atoms: _283  and  _285
REMARK  101  A    between atoms: _285  and  _286
REMARK  102  A    between atoms: _285  and  _288
REMARK  103  A    between atoms: _288  and  _289
REMARK  104  A    between atoms: _292  and  _294
REMARK  105  A    between atoms: _294  and  _295
REMARK  106  A    between atoms: _297  and  _299
REMARK  107  A    between atoms: _299  and  _300
REMARK  108  A    between atoms: _299  and  _302
REMARK  109  A    between atoms: _302  and  _303
REMARK  110  A    between atoms: _306  and  _308
REMARK  111  A    between atoms: _308  and  _309
REMARK  112  A    between atoms: _308  and  _311
REMARK  113  A    between atoms: _311  and  _312
REMARK  114  A    between atoms: _315  and  _317
REMARK  115  A    between atoms: _317  and  _318
REMARK  116  A    between atoms: _321  and  _323
REMARK  117  A    between atoms: _323  and  _324
REMARK  118  A    between atoms: _323  and  _326
REMARK  119  A    between atoms: _326  and  _327
REMARK  120  A    between atoms: _332  and  _333
REMARK  121  A    between atoms: _335  and  _337
REMARK  122  A    between atoms: _337  and  _338
REMARK  123  A    between atoms: _337  and  _340
REMARK  124  A    between atoms: _340  and  _341
REMARK  125  A    between atoms: _341  and  _342
REMARK  126  A    between atoms: _345  and  _347
REMARK  127  A    between atoms: _347  and  _348
REMARK  128  A    between atoms: _347  and  _350
REMARK  129  A    between atoms: _350  and  _351
REMARK  130  A    between atoms: _351  and  _352
REMARK  131  A    between atoms: _352  and  _353
REMARK  132  A    between atoms: _362  and  _364
REMARK  133  A    between atoms: _364  and  _365
REMARK  134  A    between atoms: _367  and  _369
REMARK  135  A    between atoms: _369  and  _370
REMARK  136  A    between atoms: _369  and  _372
REMARK  137  A    between atoms: _372  and  _373
REMARK                            x       y       z     vdW  Elec       q    Type
REMARK                         _______ _______ _______ _____ _____    ______ ____
ROOT
ATOM      1  O   HOH     1      37.852  58.763  11.316  0.00  0.00    +0.000 OA
ENDROOT
TORSDOF 0
