REMARK  Name = ../refined-set-2016/4c1y/4c1y_pocket.pdb
REMARK  109 active torsions:
REMARK  status: ('A' for Active; 'I' for Inactive)
REMARK    1  A    between atoms: _1  and  _3
REMARK    2  A    between atoms: _3  and  _4
REMARK    3  A    between atoms: _3  and  _6
REMARK    4  A    between atoms: _9  and  _11
REMARK    5  A    between atoms: _11  and  _12
REMARK    6  A    between atoms: _11  and  _14
REMARK    7  A    between atoms: _14  and  _15
REMARK    8  A    between atoms: _17  and  _19
REMARK    9  A    between atoms: _19  and  _20
REMARK   10  A    between atoms: _19  and  _22
REMARK   11  A    between atoms: _22  and  _23
REMARK   12  A    between atoms: _28  and  _30
REMARK   13  A    between atoms: _30  and  _31
REMARK   14  A    between atoms: _30  and  _33
REMARK   15  A    between atoms: _33  and  _34
REMARK   16  A    between atoms: _37  and  _39
REMARK   17  A    between atoms: _39  and  _40
REMARK   18  A    between atoms: _39  and  _42
REMARK   19  A    between atoms: _42  and  _43
REMARK   20  A    between atoms: _43  and  _44
REMARK   21  A    between atoms: _44  and  _45
REMARK   22  A    between atoms: _54  and  _56
REMARK   23  A    between atoms: _56  and  _57
REMARK   24  A    between atoms: _56  and  _59
REMARK   25  A    between atoms: _62  and  _64
REMARK   26  A    between atoms: _64  and  _65
REMARK   27  A    between atoms: _64  and  _67
REMARK   28  A    between atoms: _67  and  _68
REMARK   29  A    between atoms: _73  and  _74
REMARK   30  A    between atoms: _76  and  _78
REMARK   31  A    between atoms: _78  and  _79
REMARK   32  A    between atoms: _78  and  _81
REMARK   33  A    between atoms: _81  and  _82
REMARK   34  A    between atoms: _82  and  _83
REMARK   35  A    between atoms: _86  and  _88
REMARK   36  A    between atoms: _88  and  _89
REMARK   37  A    between atoms: _88  and  _91
REMARK   38  A    between atoms: _91  and  _92
REMARK   39  A    between atoms: _94  and  _96
REMARK   40  A    between atoms: _96  and  _97
REMARK   41  A    between atoms: _96  and  _99
REMARK   42  A    between atoms: _99  and  _100
REMARK   43  A    between atoms: _103  and  _105
REMARK   44  A    between atoms: _105  and  _106
REMARK   45  A    between atoms: _105  and  _108
REMARK   46  A    between atoms: _108  and  _109
REMARK   47  A    between atoms: _114  and  _115
REMARK   48  A    between atoms: _117  and  _119
REMARK   49  A    between atoms: _119  and  _120
REMARK   50  A    between atoms: _119  and  _122
REMARK   51  A    between atoms: _122  and  _123
REMARK   52  A    between atoms: _123  and  _124
REMARK   53  A    between atoms: _127  and  _129
REMARK   54  A    between atoms: _129  and  _130
REMARK   55  A    between atoms: _129  and  _132
REMARK   56  A    between atoms: _132  and  _133
REMARK   57  A    between atoms: _138  and  _140
REMARK   58  A    between atoms: _140  and  _141
REMARK   59  A    between atoms: _140  and  _143
REMARK   60  A    between atoms: _143  and  _144
REMARK   61  A    between atoms: _149  and  _151
REMARK   62  A    between atoms: _151  and  _152
REMARK   63  A    between atoms: _151  and  _154
REMARK   64  A    between atoms: _154  and  _155
REMARK   65  A    between atoms: _158  and  _160
REMARK   66  A    between atoms: _160  and  _161
REMARK   67  A    between atoms: _160  and  _163
REMARK   68  A    between atoms: _163  and  _164
REMARK   69  A    between atoms: _164  and  _165
REMARK   70  A    between atoms: _168  and  _170
REMARK   71  A    between atoms: _170  and  _171
REMARK   72  A    between atoms: _170  and  _173
REMARK   73  A    between atoms: _173  and  _174
REMARK   74  A    between atoms: _177  and  _179
REMARK   75  A    between atoms: _179  and  _180
REMARK   76  A    between atoms: _179  and  _182
REMARK   77  A    between atoms: _182  and  _183
REMARK   78  A    between atoms: _183  and  _184
REMARK   79  A    between atoms: _184  and  _185
REMARK   80  A    between atoms: _185  and  _186
REMARK   81  A    between atoms: _190  and  _192
REMARK   82  A    between atoms: _192  and  _193
REMARK   83  A    between atoms: _192  and  _195
REMARK   84  A    between atoms: _195  and  _196
REMARK   85  A    between atoms: _201  and  _203
REMARK   86  A    between atoms: _203  and  _204
REMARK   87  A    between atoms: _203  and  _206
REMARK   88  A    between atoms: _206  and  _207
REMARK   89  A    between atoms: _210  and  _212
REMARK   90  A    between atoms: _212  and  _213
REMARK   91  A    between atoms: _212  and  _215
REMARK   92  A    between atoms: _215  and  _216
REMARK   93  A    between atoms: _221  and  _222
REMARK   94  A    between atoms: _224  and  _226
REMARK   95  A    between atoms: _226  and  _227
REMARK   96  A    between atoms: _226  and  _229
REMARK   97  A    between atoms: _229  and  _230
REMARK   98  A    between atoms: _233  and  _235
REMARK   99  A    between atoms: _235  and  _236
REMARK  100  A    between atoms: _235  and  _238
REMARK  101  A    between atoms: _238  and  _239
REMARK  102  A    between atoms: _241  and  _243
REMARK  103  A    between atoms: _243  and  _244
REMARK  104  A    between atoms: _246  and  _248
REMARK  105  A    between atoms: _248  and  _249
REMARK  106  A    between atoms: _251  and  _253
REMARK  107  A    between atoms: _253  and  _254
REMARK  108  A    between atoms: _253  and  _256
REMARK  109  A    between atoms: _256  and  _257
REMARK                            x       y       z     vdW  Elec       q    Type
REMARK                         _______ _______ _______ _____ _____    ______ ____
ROOT
ATOM      1  CA  VAL A   1     -39.179   6.304 -13.002  0.00  0.00    +0.133 C 
ENDROOT
BRANCH   1   2
ATOM      2  CB  VAL A   1     -39.378   6.443 -11.478  0.00  0.00    +0.023 C 
ATOM      3  CG2 VAL A   1     -38.193   5.873 -10.719  0.00  0.00    +0.002 C 
ATOM      4  CG1 VAL A   1     -39.645   7.868 -11.066  0.00  0.00    +0.002 C 
ENDBRANCH   1   2
BRANCH   1   5
ATOM      5  N   VAL A   1     -38.045   7.041 -13.499  0.00  0.00    -0.239 NA
ATOM      6  H   VAL A   1     -38.164   8.054 -13.703  0.00  0.00    +0.142 HD
ENDBRANCH   1   5
BRANCH   1   7
ATOM      7  C   VAL A   1     -40.426   6.813 -13.691  0.00  0.00    +0.224 C 
ATOM      8  O   VAL A   1     -40.405   7.813 -14.387  0.00  0.00    -0.287 OA
ENDBRANCH   1   7
TORSDOF 3
REMARK  Name = ../refined-set-2016/4c1y/4c1y_pocket.pdb
REMARK  109 active torsions:
REMARK  status: ('A' for Active; 'I' for Inactive)
REMARK    1  A    between atoms: _1  and  _3
REMARK    2  A    between atoms: _3  and  _4
REMARK    3  A    between atoms: _3  and  _6
REMARK    4  A    between atoms: _9  and  _11
REMARK    5  A    between atoms: _11  and  _12
REMARK    6  A    between atoms: _11  and  _14
REMARK    7  A    between atoms: _14  and  _15
REMARK    8  A    between atoms: _17  and  _19
REMARK    9  A    between atoms: _19  and  _20
REMARK   10  A    between atoms: _19  and  _22
REMARK   11  A    between atoms: _22  and  _23
REMARK   12  A    between atoms: _28  and  _30
REMARK   13  A    between atoms: _30  and  _31
REMARK   14  A    between atoms: _30  and  _33
REMARK   15  A    between atoms: _33  and  _34
REMARK   16  A    between atoms: _37  and  _39
REMARK   17  A    between atoms: _39  and  _40
REMARK   18  A    between atoms: _39  and  _42
REMARK   19  A    between atoms: _42  and  _43
REMARK   20  A    between atoms: _43  and  _44
REMARK   21  A    between atoms: _44  and  _45
REMARK   22  A    between atoms: _54  and  _56
REMARK   23  A    between atoms: _56  and  _57
REMARK   24  A    between atoms: _56  and  _59
REMARK   25  A    between atoms: _62  and  _64
REMARK   26  A    between atoms: _64  and  _65
REMARK   27  A    between atoms: _64  and  _67
REMARK   28  A    between atoms: _67  and  _68
REMARK   29  A    between atoms: _73  and  _74
REMARK   30  A    between atoms: _76  and  _78
REMARK   31  A    between atoms: _78  and  _79
REMARK   32  A    between atoms: _78  and  _81
REMARK   33  A    between atoms: _81  and  _82
REMARK   34  A    between atoms: _82  and  _83
REMARK   35  A    between atoms: _86  and  _88
REMARK   36  A    between atoms: _88  and  _89
REMARK   37  A    between atoms: _88  and  _91
REMARK   38  A    between atoms: _91  and  _92
REMARK   39  A    between atoms: _94  and  _96
REMARK   40  A    between atoms: _96  and  _97
REMARK   41  A    between atoms: _96  and  _99
REMARK   42  A    between atoms: _99  and  _100
REMARK   43  A    between atoms: _103  and  _105
REMARK   44  A    between atoms: _105  and  _106
REMARK   45  A    between atoms: _105  and  _108
REMARK   46  A    between atoms: _108  and  _109
REMARK   47  A    between atoms: _114  and  _115
REMARK   48  A    between atoms: _117  and  _119
REMARK   49  A    between atoms: _119  and  _120
REMARK   50  A    between atoms: _119  and  _122
REMARK   51  A    between atoms: _122  and  _123
REMARK   52  A    between atoms: _123  and  _124
REMARK   53  A    between atoms: _127  and  _129
REMARK   54  A    between atoms: _129  and  _130
REMARK   55  A    between atoms: _129  and  _132
REMARK   56  A    between atoms: _132  and  _133
REMARK   57  A    between atoms: _138  and  _140
REMARK   58  A    between atoms: _140  and  _141
REMARK   59  A    between atoms: _140  and  _143
REMARK   60  A    between atoms: _143  and  _144
REMARK   61  A    between atoms: _149  and  _151
REMARK   62  A    between atoms: _151  and  _152
REMARK   63  A    between atoms: _151  and  _154
REMARK   64  A    between atoms: _154  and  _155
REMARK   65  A    between atoms: _158  and  _160
REMARK   66  A    between atoms: _160  and  _161
REMARK   67  A    between atoms: _160  and  _163
REMARK   68  A    between atoms: _163  and  _164
REMARK   69  A    between atoms: _164  and  _165
REMARK   70  A    between atoms: _168  and  _170
REMARK   71  A    between atoms: _170  and  _171
REMARK   72  A    between atoms: _170  and  _173
REMARK   73  A    between atoms: _173  and  _174
REMARK   74  A    between atoms: _177  and  _179
REMARK   75  A    between atoms: _179  and  _180
REMARK   76  A    between atoms: _179  and  _182
REMARK   77  A    between atoms: _182  and  _183
REMARK   78  A    between atoms: _183  and  _184
REMARK   79  A    between atoms: _184  and  _185
REMARK   80  A    between atoms: _185  and  _186
REMARK   81  A    between atoms: _190  and  _192
REMARK   82  A    between atoms: _192  and  _193
REMARK   83  A    between atoms: _192  and  _195
REMARK   84  A    between atoms: _195  and  _196
REMARK   85  A    between atoms: _201  and  _203
REMARK   86  A    between atoms: _203  and  _204
REMARK   87  A    between atoms: _203  and  _206
REMARK   88  A    between atoms: _206  and  _207
REMARK   89  A    between atoms: _210  and  _212
REMARK   90  A    between atoms: _212  and  _213
REMARK   91  A    between atoms: _212  and  _215
REMARK   92  A    between atoms: _215  and  _216
REMARK   93  A    between atoms: _221  and  _222
REMARK   94  A    between atoms: _224  and  _226
REMARK   95  A    between atoms: _226  and  _227
REMARK   96  A    between atoms: _226  and  _229
REMARK   97  A    between atoms: _229  and  _230
REMARK   98  A    between atoms: _233  and  _235
REMARK   99  A    between atoms: _235  and  _236
REMARK  100  A    between atoms: _235  and  _238
REMARK  101  A    between atoms: _238  and  _239
REMARK  102  A    between atoms: _241  and  _243
REMARK  103  A    between atoms: _243  and  _244
REMARK  104  A    between atoms: _246  and  _248
REMARK  105  A    between atoms: _248  and  _249
REMARK  106  A    between atoms: _251  and  _253
REMARK  107  A    between atoms: _253  and  _254
REMARK  108  A    between atoms: _253  and  _256
REMARK  109  A    between atoms: _256  and  _257
REMARK                            x       y       z     vdW  Elec       q    Type
REMARK                         _______ _______ _______ _____ _____    ______ ____
ROOT
ATOM      1  CA  SER A   1     -46.400   5.661 -13.615  0.00  0.00    +0.163 C 
ENDROOT
BRANCH   1   2
ATOM      2  N   SER A   1     -45.118   6.336 -13.778  0.00  0.00    -0.237 NA
ATOM      3  H   SER A   1     -45.122   7.320 -14.113  0.00  0.00    +0.142 HD
ENDBRANCH   1   2
BRANCH   1   4
ATOM      4  C   SER A   1     -47.045   5.743 -14.975  0.00  0.00    +0.227 C 
ATOM      5  O   SER A   1     -47.273   6.824 -15.472  0.00  0.00    -0.287 OA
ENDBRANCH   1   4
BRANCH   1   6
ATOM      6  CB  SER A   1     -47.283   6.381 -12.602  0.00  0.00    +0.162 C 
BRANCH   6   7
ATOM      7  OG  SER A   1     -48.589   5.810 -12.625  0.00  0.00    -0.380 OA
ATOM      8  H   SER A   1     -49.164   6.277 -11.968  0.00  0.00    +0.211 HD
ENDBRANCH   6   7
ENDBRANCH   1   6
TORSDOF 4
REMARK  Name = ../refined-set-2016/4c1y/4c1y_pocket.pdb
REMARK  109 active torsions:
REMARK  status: ('A' for Active; 'I' for Inactive)
REMARK    1  A    between atoms: _1  and  _3
REMARK    2  A    between atoms: _3  and  _4
REMARK    3  A    between atoms: _3  and  _6
REMARK    4  A    between atoms: _9  and  _11
REMARK    5  A    between atoms: _11  and  _12
REMARK    6  A    between atoms: _11  and  _14
REMARK    7  A    between atoms: _14  and  _15
REMARK    8  A    between atoms: _17  and  _19
REMARK    9  A    between atoms: _19  and  _20
REMARK   10  A    between atoms: _19  and  _22
REMARK   11  A    between atoms: _22  and  _23
REMARK   12  A    between atoms: _28  and  _30
REMARK   13  A    between atoms: _30  and  _31
REMARK   14  A    between atoms: _30  and  _33
REMARK   15  A    between atoms: _33  and  _34
REMARK   16  A    between atoms: _37  and  _39
REMARK   17  A    between atoms: _39  and  _40
REMARK   18  A    between atoms: _39  and  _42
REMARK   19  A    between atoms: _42  and  _43
REMARK   20  A    between atoms: _43  and  _44
REMARK   21  A    between atoms: _44  and  _45
REMARK   22  A    between atoms: _54  and  _56
REMARK   23  A    between atoms: _56  and  _57
REMARK   24  A    between atoms: _56  and  _59
REMARK   25  A    between atoms: _62  and  _64
REMARK   26  A    between atoms: _64  and  _65
REMARK   27  A    between atoms: _64  and  _67
REMARK   28  A    between atoms: _67  and  _68
REMARK   29  A    between atoms: _73  and  _74
REMARK   30  A    between atoms: _76  and  _78
REMARK   31  A    between atoms: _78  and  _79
REMARK   32  A    between atoms: _78  and  _81
REMARK   33  A    between atoms: _81  and  _82
REMARK   34  A    between atoms: _82  and  _83
REMARK   35  A    between atoms: _86  and  _88
REMARK   36  A    between atoms: _88  and  _89
REMARK   37  A    between atoms: _88  and  _91
REMARK   38  A    between atoms: _91  and  _92
REMARK   39  A    between atoms: _94  and  _96
REMARK   40  A    between atoms: _96  and  _97
REMARK   41  A    between atoms: _96  and  _99
REMARK   42  A    between atoms: _99  and  _100
REMARK   43  A    between atoms: _103  and  _105
REMARK   44  A    between atoms: _105  and  _106
REMARK   45  A    between atoms: _105  and  _108
REMARK   46  A    between atoms: _108  and  _109
REMARK   47  A    between atoms: _114  and  _115
REMARK   48  A    between atoms: _117  and  _119
REMARK   49  A    between atoms: _119  and  _120
REMARK   50  A    between atoms: _119  and  _122
REMARK   51  A    between atoms: _122  and  _123
REMARK   52  A    between atoms: _123  and  _124
REMARK   53  A    between atoms: _127  and  _129
REMARK   54  A    between atoms: _129  and  _130
REMARK   55  A    between atoms: _129  and  _132
REMARK   56  A    between atoms: _132  and  _133
REMARK   57  A    between atoms: _138  and  _140
REMARK   58  A    between atoms: _140  and  _141
REMARK   59  A    between atoms: _140  and  _143
REMARK   60  A    between atoms: _143  and  _144
REMARK   61  A    between atoms: _149  and  _151
REMARK   62  A    between atoms: _151  and  _152
REMARK   63  A    between atoms: _151  and  _154
REMARK   64  A    between atoms: _154  and  _155
REMARK   65  A    between atoms: _158  and  _160
REMARK   66  A    between atoms: _160  and  _161
REMARK   67  A    between atoms: _160  and  _163
REMARK   68  A    between atoms: _163  and  _164
REMARK   69  A    between atoms: _164  and  _165
REMARK   70  A    between atoms: _168  and  _170
REMARK   71  A    between atoms: _170  and  _171
REMARK   72  A    between atoms: _170  and  _173
REMARK   73  A    between atoms: _173  and  _174
REMARK   74  A    between atoms: _177  and  _179
REMARK   75  A    between atoms: _179  and  _180
REMARK   76  A    between atoms: _179  and  _182
REMARK   77  A    between atoms: _182  and  _183
REMARK   78  A    between atoms: _183  and  _184
REMARK   79  A    between atoms: _184  and  _185
REMARK   80  A    between atoms: _185  and  _186
REMARK   81  A    between atoms: _190  and  _192
REMARK   82  A    between atoms: _192  and  _193
REMARK   83  A    between atoms: _192  and  _195
REMARK   84  A    between atoms: _195  and  _196
REMARK   85  A    between atoms: _201  and  _203
REMARK   86  A    between atoms: _203  and  _204
REMARK   87  A    between atoms: _203  and  _206
REMARK   88  A    between atoms: _206  and  _207
REMARK   89  A    between atoms: _210  and  _212
REMARK   90  A    between atoms: _212  and  _213
REMARK   91  A    between atoms: _212  and  _215
REMARK   92  A    between atoms: _215  and  _216
REMARK   93  A    between atoms: _221  and  _222
REMARK   94  A    between atoms: _224  and  _226
REMARK   95  A    between atoms: _226  and  _227
REMARK   96  A    between atoms: _226  and  _229
REMARK   97  A    between atoms: _229  and  _230
REMARK   98  A    between atoms: _233  and  _235
REMARK   99  A    between atoms: _235  and  _236
REMARK  100  A    between atoms: _235  and  _238
REMARK  101  A    between atoms: _238  and  _239
REMARK  102  A    between atoms: _241  and  _243
REMARK  103  A    between atoms: _243  and  _244
REMARK  104  A    between atoms: _246  and  _248
REMARK  105  A    between atoms: _248  and  _249
REMARK  106  A    between atoms: _251  and  _253
REMARK  107  A    between atoms: _253  and  _254
REMARK  108  A    between atoms: _253  and  _256
REMARK  109  A    between atoms: _256  and  _257
REMARK                            x       y       z     vdW  Elec       q    Type
REMARK                         _______ _______ _______ _____ _____    ______ ____
ROOT
ATOM      1  CA  ARG A   3     -39.406  11.356 -14.078  0.00  0.00    +0.149 C 
ENDROOT
BRANCH   1   3
ATOM      2  C   LEU A   2     -41.408  11.199 -15.474  0.00  0.00    +0.241 C 
ATOM      3  N   ARG A   3     -40.454  10.599 -14.765  0.00  0.00    -0.297 N 
ATOM      4  H   ARG A   3     -40.453   9.561 -14.697  0.00  0.00    +0.150 HD
ATOM      5  O   LEU A   2     -41.591  12.418 -15.480  0.00  0.00    -0.273 OA
BRANCH   2   6
ATOM      6  CA  LEU A   2     -42.227  10.285 -16.374  0.00  0.00    +0.149 C 
BRANCH   6   9
ATOM      7  C   HIS A   1     -44.588   9.652 -16.028  0.00  0.00    +0.239 C 
ATOM      8  O   HIS A   1     -44.318   8.672 -15.353  0.00  0.00    -0.274 OA
ATOM      9  N   LEU A   2     -43.677  10.557 -16.436  0.00  0.00    -0.297 N 
ATOM     10  H   LEU A   2     -44.004  11.473 -16.805  0.00  0.00    +0.150 HD
BRANCH   7  11
ATOM     11  CA  HIS A   1     -46.046   9.882 -16.424  0.00  0.00    +0.151 C 
BRANCH  11  12
ATOM     12  N   HIS A   1     -46.433   8.747 -17.212  0.00  0.00    -0.238 NA
ATOM     13  H   HIS A   1     -46.737   7.877 -16.731  0.00  0.00    +0.142 HD
ENDBRANCH  11  12
BRANCH  11  14
ATOM     14  CB  HIS A   1     -46.971   9.966 -15.228  0.00  0.00    +0.074 C 
BRANCH  14  15
ATOM     15  CG  HIS A   1     -48.382  10.196 -15.640  0.00  0.00    +0.082 A 
ATOM     16  ND1 HIS A   1     -49.292   9.171 -15.793  0.00  0.00    -0.227 NA
ATOM     17  CE1 HIS A   1     -50.425   9.663 -16.257  0.00  0.00    +0.199 A 
ATOM     18  NE2 HIS A   1     -50.273  10.964 -16.428  0.00  0.00    -0.221 NA
ATOM     19  CD2 HIS A   1     -48.995  11.315 -16.084  0.00  0.00    +0.115 A 
ENDBRANCH  14  15
ENDBRANCH  11  14
ENDBRANCH   7  11
ENDBRANCH   6   9
BRANCH   6  20
ATOM     20  CB  LEU A   2     -41.595  10.342 -17.749  0.00  0.00    +0.029 C 
BRANCH  20  21
ATOM     21  CG  LEU A   2     -42.367   9.731 -18.906  0.00  0.00    +0.002 C 
ATOM     22  CD2 LEU A   2     -42.819   8.300 -18.623  0.00  0.00    +0.000 C 
ATOM     23  CD1 LEU A   2     -41.500   9.788 -20.146  0.00  0.00    +0.000 C 
ENDBRANCH  20  21
ENDBRANCH   6  20
ENDBRANCH   2   6
ENDBRANCH   1   3
BRANCH   1  24
ATOM     24  C   ARG A   3     -37.994  10.845 -14.434  0.00  0.00    +0.241 C 
ATOM     25  O   ARG A   3     -37.702   9.663 -14.299  0.00  0.00    -0.273 OA
ATOM     26  N   VAL A   4     -37.121  11.763 -14.816  0.00  0.00    -0.297 N 
ATOM     27  H   VAL A   4     -37.448  12.747 -14.892  0.00  0.00    +0.150 HD
BRANCH  26  28
ATOM     28  CA  VAL A   4     -35.724  11.475 -15.138  0.00  0.00    +0.149 C 
BRANCH  28  29
ATOM     29  C   VAL A   4     -34.797  12.324 -14.257  0.00  0.00    +0.241 C 
ATOM     30  N   TYR A   5     -33.863  11.675 -13.568  0.00  0.00    -0.298 N 
ATOM     31  H   TYR A   5     -33.823  10.638 -13.640  0.00  0.00    +0.150 HD
ATOM     32  O   VAL A   4     -34.966  13.526 -14.166  0.00  0.00    -0.273 OA
BRANCH  30  33
ATOM     33  CA  TYR A   5     -32.876  12.364 -12.702  0.00  0.00    +0.141 C 
BRANCH  33  34
ATOM     34  C   TYR A   5     -31.503  12.353 -13.330  0.00  0.00    +0.227 C 
ATOM     35  O   TYR A   5     -31.078  11.350 -13.870  0.00  0.00    -0.286 OA
ENDBRANCH  33  34
BRANCH  33  36
ATOM     36  CB  TYR A   5     -32.824  11.708 -11.303  0.00  0.00    +0.054 C 
BRANCH  36  37
ATOM     37  CG  TYR A   5     -34.212  11.656 -10.731  0.00  0.00    -0.020 A 
ATOM     38  CD2 TYR A   5     -34.763  12.765 -10.134  0.00  0.00    -0.001 A 
ATOM     39  CE2 TYR A   5     -36.065  12.750  -9.673  0.00  0.00    +0.036 A 
ATOM     40  CZ  TYR A   5     -36.839  11.635  -9.844  0.00  0.00    +0.134 A 
ATOM     41  CE1 TYR A   5     -36.326  10.524 -10.476  0.00  0.00    +0.036 A 
ATOM     42  CD1 TYR A   5     -35.030  10.541 -10.928  0.00  0.00    -0.001 A 
BRANCH  40  43
ATOM     43  OH  TYR A   5     -38.124  11.645  -9.388  0.00  0.00    -0.506 OA
ATOM     44  HH  TYR A   5     -38.316  12.519  -8.965  0.00  0.00    +0.292 HD
ENDBRANCH  40  43
ENDBRANCH  36  37
ENDBRANCH  33  36
ENDBRANCH  30  33
ENDBRANCH  28  29
BRANCH  28  45
ATOM     45  CB  VAL A   4     -35.445  11.798 -16.604  0.00  0.00    +0.027 C 
ATOM     46  CG2 VAL A   4     -34.072  11.292 -17.006  0.00  0.00    +0.002 C 
ATOM     47  CG1 VAL A   4     -36.472  11.144 -17.502  0.00  0.00    +0.002 C 
ENDBRANCH  28  45
ENDBRANCH  26  28
ENDBRANCH   1  24
BRANCH   1  48
ATOM     48  CB  ARG A   3     -39.584  11.245 -12.562  0.00  0.00    +0.033 C 
BRANCH  48  49
ATOM     49  CG  ARG A   3     -40.929  11.696 -12.064  0.00  0.00    +0.045 C 
BRANCH  49  50
ATOM     50  CD  ARG A   3     -41.153  13.175 -12.349  0.00  0.00    +0.174 C 
BRANCH  50  51
ATOM     51  NE  ARG A   3     -42.425  13.583 -11.781  0.00  0.00    -0.265 N 
ATOM     52  HE  ARG A   3     -42.451  13.804 -10.765  0.00  0.00    +0.259 HD
ATOM     53  CZ  ARG A   3     -43.558  13.694 -12.465  0.00  0.00    +0.342 C 
ATOM     54  NH2 ARG A   3     -44.659  14.059 -11.833  0.00  0.00    -0.292 N 
ATOM     55 HH21 ARG A   3     -44.632  14.256 -10.812  0.00  0.00    +0.255 HD
ATOM     56 HH22 ARG A   3     -45.553  14.150 -12.356  0.00  0.00    +0.255 HD
ATOM     57  NH1 ARG A   3     -43.588  13.489 -13.781  0.00  0.00    -0.292 N 
ATOM     58 HH11 ARG A   3     -42.715  13.238 -14.288  0.00  0.00    +0.255 HD
ATOM     59 HH12 ARG A   3     -44.484  13.580 -14.301  0.00  0.00    +0.255 HD
ENDBRANCH  50  51
ENDBRANCH  49  50
ENDBRANCH  48  49
ENDBRANCH   1  48
TORSDOF 22
REMARK  Name = ../refined-set-2016/4c1y/4c1y_pocket.pdb
REMARK  109 active torsions:
REMARK  status: ('A' for Active; 'I' for Inactive)
REMARK    1  A    between atoms: _1  and  _3
REMARK    2  A    between atoms: _3  and  _4
REMARK    3  A    between atoms: _3  and  _6
REMARK    4  A    between atoms: _9  and  _11
REMARK    5  A    between atoms: _11  and  _12
REMARK    6  A    between atoms: _11  and  _14
REMARK    7  A    between atoms: _14  and  _15
REMARK    8  A    between atoms: _17  and  _19
REMARK    9  A    between atoms: _19  and  _20
REMARK   10  A    between atoms: _19  and  _22
REMARK   11  A    between atoms: _22  and  _23
REMARK   12  A    between atoms: _28  and  _30
REMARK   13  A    between atoms: _30  and  _31
REMARK   14  A    between atoms: _30  and  _33
REMARK   15  A    between atoms: _33  and  _34
REMARK   16  A    between atoms: _37  and  _39
REMARK   17  A    between atoms: _39  and  _40
REMARK   18  A    between atoms: _39  and  _42
REMARK   19  A    between atoms: _42  and  _43
REMARK   20  A    between atoms: _43  and  _44
REMARK   21  A    between atoms: _44  and  _45
REMARK   22  A    between atoms: _54  and  _56
REMARK   23  A    between atoms: _56  and  _57
REMARK   24  A    between atoms: _56  and  _59
REMARK   25  A    between atoms: _62  and  _64
REMARK   26  A    between atoms: _64  and  _65
REMARK   27  A    between atoms: _64  and  _67
REMARK   28  A    between atoms: _67  and  _68
REMARK   29  A    between atoms: _73  and  _74
REMARK   30  A    between atoms: _76  and  _78
REMARK   31  A    between atoms: _78  and  _79
REMARK   32  A    between atoms: _78  and  _81
REMARK   33  A    between atoms: _81  and  _82
REMARK   34  A    between atoms: _82  and  _83
REMARK   35  A    between atoms: _86  and  _88
REMARK   36  A    between atoms: _88  and  _89
REMARK   37  A    between atoms: _88  and  _91
REMARK   38  A    between atoms: _91  and  _92
REMARK   39  A    between atoms: _94  and  _96
REMARK   40  A    between atoms: _96  and  _97
REMARK   41  A    between atoms: _96  and  _99
REMARK   42  A    between atoms: _99  and  _100
REMARK   43  A    between atoms: _103  and  _105
REMARK   44  A    between atoms: _105  and  _106
REMARK   45  A    between atoms: _105  and  _108
REMARK   46  A    between atoms: _108  and  _109
REMARK   47  A    between atoms: _114  and  _115
REMARK   48  A    between atoms: _117  and  _119
REMARK   49  A    between atoms: _119  and  _120
REMARK   50  A    between atoms: _119  and  _122
REMARK   51  A    between atoms: _122  and  _123
REMARK   52  A    between atoms: _123  and  _124
REMARK   53  A    between atoms: _127  and  _129
REMARK   54  A    between atoms: _129  and  _130
REMARK   55  A    between atoms: _129  and  _132
REMARK   56  A    between atoms: _132  and  _133
REMARK   57  A    between atoms: _138  and  _140
REMARK   58  A    between atoms: _140  and  _141
REMARK   59  A    between atoms: _140  and  _143
REMARK   60  A    between atoms: _143  and  _144
REMARK   61  A    between atoms: _149  and  _151
REMARK   62  A    between atoms: _151  and  _152
REMARK   63  A    between atoms: _151  and  _154
REMARK   64  A    between atoms: _154  and  _155
REMARK   65  A    between atoms: _158  and  _160
REMARK   66  A    between atoms: _160  and  _161
REMARK   67  A    between atoms: _160  and  _163
REMARK   68  A    between atoms: _163  and  _164
REMARK   69  A    between atoms: _164  and  _165
REMARK   70  A    between atoms: _168  and  _170
REMARK   71  A    between atoms: _170  and  _171
REMARK   72  A    between atoms: _170  and  _173
REMARK   73  A    between atoms: _173  and  _174
REMARK   74  A    between atoms: _177  and  _179
REMARK   75  A    between atoms: _179  and  _180
REMARK   76  A    between atoms: _179  and  _182
REMARK   77  A    between atoms: _182  and  _183
REMARK   78  A    between atoms: _183  and  _184
REMARK   79  A    between atoms: _184  and  _185
REMARK   80  A    between atoms: _185  and  _186
REMARK   81  A    between atoms: _190  and  _192
REMARK   82  A    between atoms: _192  and  _193
REMARK   83  A    between atoms: _192  and  _195
REMARK   84  A    between atoms: _195  and  _196
REMARK   85  A    between atoms: _201  and  _203
REMARK   86  A    between atoms: _203  and  _204
REMARK   87  A    between atoms: _203  and  _206
REMARK   88  A    between atoms: _206  and  _207
REMARK   89  A    between atoms: _210  and  _212
REMARK   90  A    between atoms: _212  and  _213
REMARK   91  A    between atoms: _212  and  _215
REMARK   92  A    between atoms: _215  and  _216
REMARK   93  A    between atoms: _221  and  _222
REMARK   94  A    between atoms: _224  and  _226
REMARK   95  A    between atoms: _226  and  _227
REMARK   96  A    between atoms: _226  and  _229
REMARK   97  A    between atoms: _229  and  _230
REMARK   98  A    between atoms: _233  and  _235
REMARK   99  A    between atoms: _235  and  _236
REMARK  100  A    between atoms: _235  and  _238
REMARK  101  A    between atoms: _238  and  _239
REMARK  102  A    between atoms: _241  and  _243
REMARK  103  A    between atoms: _243  and  _244
REMARK  104  A    between atoms: _246  and  _248
REMARK  105  A    between atoms: _248  and  _249
REMARK  106  A    between atoms: _251  and  _253
REMARK  107  A    between atoms: _253  and  _254
REMARK  108  A    between atoms: _253  and  _256
REMARK  109  A    between atoms: _256  and  _257
REMARK                            x       y       z     vdW  Elec       q    Type
REMARK                         _______ _______ _______ _____ _____    ______ ____
ROOT
ATOM      1  C   LEU A   3     -41.247  15.699 -17.088  0.00  0.00    +0.241 C 
ATOM      2  N   TYR A   4     -42.000  14.629 -17.348  0.00  0.00    -0.297 N 
ATOM      3  H   TYR A   4     -41.907  13.783 -16.750  0.00  0.00    +0.150 HD
ATOM      4  O   LEU A   3     -41.090  16.643 -17.878  0.00  0.00    -0.273 OA
ENDROOT
BRANCH   2   5
ATOM      5  CA  TYR A   4     -42.953  14.621 -18.456  0.00  0.00    +0.153 C 
BRANCH   5   6
ATOM      6  C   TYR A   4     -44.374  14.226 -18.010  0.00  0.00    +0.241 C 
ATOM      7  O   TYR A   4     -44.623  13.100 -17.624  0.00  0.00    -0.273 OA
ATOM      8  N   GLU A   5     -45.291  15.181 -18.060  0.00  0.00    -0.298 N 
ATOM      9  H   GLU A   5     -44.976  16.166 -18.174  0.00  0.00    +0.150 HD
BRANCH   8  10
ATOM     10  CA  GLU A   5     -46.720  14.915 -17.962  0.00  0.00    +0.137 C 
BRANCH  10  11
ATOM     11  C   GLU A   5     -47.324  15.608 -19.163  0.00  0.00    +0.227 C 
ATOM     12  O   GLU A   5     -47.637  16.787 -19.081  0.00  0.00    -0.286 OA
ENDBRANCH  10  11
BRANCH  10  13
ATOM     13  CB  GLU A   5     -47.275  15.518 -16.672  0.00  0.00    +0.039 C 
BRANCH  13  14
ATOM     14  CG  GLU A   5     -46.630  15.007 -15.391  0.00  0.00    +0.116 C 
BRANCH  14  15
ATOM     15  CD  GLU A   5     -47.566  14.219 -14.486  0.00  0.00    +0.365 C 
ATOM     16  OE2 GLU A   5     -47.084  13.448 -13.632  0.00  0.00    -0.246 OA
ATOM     17  OE1 GLU A   5     -48.800  14.398 -14.589  0.00  0.00    -0.246 OA
ENDBRANCH  14  15
ENDBRANCH  13  14
ENDBRANCH  10  13
ENDBRANCH   8  10
ENDBRANCH   5   6
BRANCH   5  18
ATOM     18  CB  TYR A   4     -42.482  13.680 -19.543  0.00  0.00    +0.055 C 
BRANCH  18  19
ATOM     19  CG  TYR A   4     -43.420  13.572 -20.729  0.00  0.00    -0.020 A 
ATOM     20  CD2 TYR A   4     -44.523  12.683 -20.707  0.00  0.00    -0.001 A 
ATOM     21  CE2 TYR A   4     -45.379  12.560 -21.799  0.00  0.00    +0.036 A 
ATOM     22  CZ  TYR A   4     -45.155  13.339 -22.907  0.00  0.00    +0.134 A 
ATOM     23  CE1 TYR A   4     -44.063  14.213 -22.955  0.00  0.00    +0.036 A 
ATOM     24  CD1 TYR A   4     -43.206  14.317 -21.868  0.00  0.00    -0.001 A 
BRANCH  22  25
ATOM     25  OH  TYR A   4     -45.972  13.214 -24.007  0.00  0.00    -0.506 OA
ATOM     26  HH  TYR A   4     -46.372  14.094 -24.221  0.00  0.00    +0.292 HD
ENDBRANCH  22  25
ENDBRANCH  18  19
ENDBRANCH   5  18
ENDBRANCH   2   5
BRANCH   1  27
ATOM     27  CA  LEU A   3     -40.518  15.696 -15.755  0.00  0.00    +0.149 C 
BRANCH  27  30
ATOM     28  C   SER A   2     -38.138  15.690 -15.336  0.00  0.00    +0.243 C 
ATOM     29  O   SER A   2     -38.137  14.597 -14.830  0.00  0.00    -0.273 OA
ATOM     30  N   LEU A   3     -39.183  16.190 -15.959  0.00  0.00    -0.297 N 
ATOM     31  H   LEU A   3     -39.038  16.974 -16.626  0.00  0.00    +0.150 HD
BRANCH  28  32
ATOM     32  CA  SER A   2     -36.884  16.535 -15.327  0.00  0.00    +0.178 C 
BRANCH  32  35
ATOM     33  C   GLU A   1     -36.048  16.749 -13.063  0.00  0.00    +0.238 C 
ATOM     34  O   GLU A   1     -36.447  17.922 -12.966  0.00  0.00    -0.274 OA
ATOM     35  N   SER A   2     -36.098  16.068 -14.201  0.00  0.00    -0.295 N 
ATOM     36  H   SER A   2     -35.562  15.181 -14.287  0.00  0.00    +0.150 HD
BRANCH  33  37
ATOM     37  CA  GLU A   1     -35.441  16.028 -11.886  0.00  0.00    +0.145 C 
BRANCH  37  38
ATOM     38  N   GLU A   1     -34.327  16.758 -11.301  0.00  0.00    -0.238 NA
ATOM     39  H   GLU A   1     -34.544  17.670 -10.852  0.00  0.00    +0.142 HD
ENDBRANCH  37  38
BRANCH  37  40
ATOM     40  CB  GLU A   1     -36.531  15.854 -10.850  0.00  0.00    +0.038 C 
BRANCH  40  41
ATOM     41  CG  GLU A   1     -37.680  14.956 -11.322  0.00  0.00    +0.116 C 
BRANCH  41  42
ATOM     42  CD  GLU A   1     -38.844  15.056 -10.392  0.00  0.00    +0.365 C 
ATOM     43  OE2 GLU A   1     -39.069  14.115  -9.625  0.00  0.00    -0.246 OA
ATOM     44  OE1 GLU A   1     -39.490  16.122 -10.393  0.00  0.00    -0.246 OA
ENDBRANCH  41  42
ENDBRANCH  40  41
ENDBRANCH  37  40
ENDBRANCH  33  37
ENDBRANCH  32  35
BRANCH  32  45
ATOM     45  CB  SER A   2     -36.130  16.363 -16.617  0.00  0.00    +0.166 C 
BRANCH  45  46
ATOM     46  OG  SER A   2     -35.045  17.263 -16.674  0.00  0.00    -0.380 OA
ATOM     47  H   SER A   2     -34.559  17.138 -17.527  0.00  0.00    +0.211 HD
ENDBRANCH  45  46
ENDBRANCH  32  45
ENDBRANCH  28  32
ENDBRANCH  27  30
BRANCH  27  48
ATOM     48  CB  LEU A   3     -41.207  16.639 -14.778  0.00  0.00    +0.029 C 
BRANCH  48  49
ATOM     49  CG  LEU A   3     -42.697  16.771 -14.606  0.00  0.00    +0.002 C 
ATOM     50  CD2 LEU A   3     -42.954  17.510 -13.289  0.00  0.00    +0.000 C 
ATOM     51  CD1 LEU A   3     -43.397  17.467 -15.761  0.00  0.00    +0.000 C 
ENDBRANCH  48  49
ENDBRANCH  27  48
ENDBRANCH   1  27
TORSDOF 23
REMARK  Name = ../refined-set-2016/4c1y/4c1y_pocket.pdb
REMARK  109 active torsions:
REMARK  status: ('A' for Active; 'I' for Inactive)
REMARK    1  A    between atoms: _1  and  _3
REMARK    2  A    between atoms: _3  and  _4
REMARK    3  A    between atoms: _3  and  _6
REMARK    4  A    between atoms: _9  and  _11
REMARK    5  A    between atoms: _11  and  _12
REMARK    6  A    between atoms: _11  and  _14
REMARK    7  A    between atoms: _14  and  _15
REMARK    8  A    between atoms: _17  and  _19
REMARK    9  A    between atoms: _19  and  _20
REMARK   10  A    between atoms: _19  and  _22
REMARK   11  A    between atoms: _22  and  _23
REMARK   12  A    between atoms: _28  and  _30
REMARK   13  A    between atoms: _30  and  _31
REMARK   14  A    between atoms: _30  and  _33
REMARK   15  A    between atoms: _33  and  _34
REMARK   16  A    between atoms: _37  and  _39
REMARK   17  A    between atoms: _39  and  _40
REMARK   18  A    between atoms: _39  and  _42
REMARK   19  A    between atoms: _42  and  _43
REMARK   20  A    between atoms: _43  and  _44
REMARK   21  A    between atoms: _44  and  _45
REMARK   22  A    between atoms: _54  and  _56
REMARK   23  A    between atoms: _56  and  _57
REMARK   24  A    between atoms: _56  and  _59
REMARK   25  A    between atoms: _62  and  _64
REMARK   26  A    between atoms: _64  and  _65
REMARK   27  A    between atoms: _64  and  _67
REMARK   28  A    between atoms: _67  and  _68
REMARK   29  A    between atoms: _73  and  _74
REMARK   30  A    between atoms: _76  and  _78
REMARK   31  A    between atoms: _78  and  _79
REMARK   32  A    between atoms: _78  and  _81
REMARK   33  A    between atoms: _81  and  _82
REMARK   34  A    between atoms: _82  and  _83
REMARK   35  A    between atoms: _86  and  _88
REMARK   36  A    between atoms: _88  and  _89
REMARK   37  A    between atoms: _88  and  _91
REMARK   38  A    between atoms: _91  and  _92
REMARK   39  A    between atoms: _94  and  _96
REMARK   40  A    between atoms: _96  and  _97
REMARK   41  A    between atoms: _96  and  _99
REMARK   42  A    between atoms: _99  and  _100
REMARK   43  A    between atoms: _103  and  _105
REMARK   44  A    between atoms: _105  and  _106
REMARK   45  A    between atoms: _105  and  _108
REMARK   46  A    between atoms: _108  and  _109
REMARK   47  A    between atoms: _114  and  _115
REMARK   48  A    between atoms: _117  and  _119
REMARK   49  A    between atoms: _119  and  _120
REMARK   50  A    between atoms: _119  and  _122
REMARK   51  A    between atoms: _122  and  _123
REMARK   52  A    between atoms: _123  and  _124
REMARK   53  A    between atoms: _127  and  _129
REMARK   54  A    between atoms: _129  and  _130
REMARK   55  A    between atoms: _129  and  _132
REMARK   56  A    between atoms: _132  and  _133
REMARK   57  A    between atoms: _138  and  _140
REMARK   58  A    between atoms: _140  and  _141
REMARK   59  A    between atoms: _140  and  _143
REMARK   60  A    between atoms: _143  and  _144
REMARK   61  A    between atoms: _149  and  _151
REMARK   62  A    between atoms: _151  and  _152
REMARK   63  A    between atoms: _151  and  _154
REMARK   64  A    between atoms: _154  and  _155
REMARK   65  A    between atoms: _158  and  _160
REMARK   66  A    between atoms: _160  and  _161
REMARK   67  A    between atoms: _160  and  _163
REMARK   68  A    between atoms: _163  and  _164
REMARK   69  A    between atoms: _164  and  _165
REMARK   70  A    between atoms: _168  and  _170
REMARK   71  A    between atoms: _170  and  _171
REMARK   72  A    between atoms: _170  and  _173
REMARK   73  A    between atoms: _173  and  _174
REMARK   74  A    between atoms: _177  and  _179
REMARK   75  A    between atoms: _179  and  _180
REMARK   76  A    between atoms: _179  and  _182
REMARK   77  A    between atoms: _182  and  _183
REMARK   78  A    between atoms: _183  and  _184
REMARK   79  A    between atoms: _184  and  _185
REMARK   80  A    between atoms: _185  and  _186
REMARK   81  A    between atoms: _190  and  _192
REMARK   82  A    between atoms: _192  and  _193
REMARK   83  A    between atoms: _192  and  _195
REMARK   84  A    between atoms: _195  and  _196
REMARK   85  A    between atoms: _201  and  _203
REMARK   86  A    between atoms: _203  and  _204
REMARK   87  A    between atoms: _203  and  _206
REMARK   88  A    between atoms: _206  and  _207
REMARK   89  A    between atoms: _210  and  _212
REMARK   90  A    between atoms: _212  and  _213
REMARK   91  A    between atoms: _212  and  _215
REMARK   92  A    between atoms: _215  and  _216
REMARK   93  A    between atoms: _221  and  _222
REMARK   94  A    between atoms: _224  and  _226
REMARK   95  A    between atoms: _226  and  _227
REMARK   96  A    between atoms: _226  and  _229
REMARK   97  A    between atoms: _229  and  _230
REMARK   98  A    between atoms: _233  and  _235
REMARK   99  A    between atoms: _235  and  _236
REMARK  100  A    between atoms: _235  and  _238
REMARK  101  A    between atoms: _238  and  _239
REMARK  102  A    between atoms: _241  and  _243
REMARK  103  A    between atoms: _243  and  _244
REMARK  104  A    between atoms: _246  and  _248
REMARK  105  A    between atoms: _248  and  _249
REMARK  106  A    between atoms: _251  and  _253
REMARK  107  A    between atoms: _253  and  _254
REMARK  108  A    between atoms: _253  and  _256
REMARK  109  A    between atoms: _256  and  _257
REMARK                            x       y       z     vdW  Elec       q    Type
REMARK                         _______ _______ _______ _____ _____    ______ ____
ROOT
ATOM      1  CB  ASN A   1     -38.777  20.321 -14.367  0.00  0.00    +0.110 C 
ENDROOT
BRANCH   1   2
ATOM      2  CG  ASN A   1     -40.078  20.907 -13.792  0.00  0.00    +0.221 C 
ATOM      3  OD1 ASN A   1     -40.708  20.286 -12.919  0.00  0.00    -0.275 OA
ATOM      4  ND2 ASN A   1     -40.477  22.120 -14.253  0.00  0.00    -0.329 N 
ATOM      5 HD21 ASN A   1     -41.339  22.562 -13.874  0.00  0.00    +0.145 HD
ATOM      6 HD22 ASN A   1     -39.921  22.607 -14.985  0.00  0.00    +0.145 HD
ENDBRANCH   1   2
BRANCH   1   7
ATOM      7  CA  ASN A   1     -38.135  21.217 -15.442  0.00  0.00    +0.142 C 
BRANCH   7   8
ATOM      8  N   ASN A   1     -38.914  21.162 -16.688  0.00  0.00    -0.239 NA
ATOM      9  H   ASN A   1     -39.099  22.056 -17.187  0.00  0.00    +0.142 HD
ENDBRANCH   7   8
BRANCH   7  10
ATOM     10  C   ASN A   1     -36.635  20.965 -15.663  0.00  0.00    +0.225 C 
ATOM     11  O   ASN A   1     -36.106  21.330 -16.696  0.00  0.00    -0.287 OA
ENDBRANCH   7  10
ENDBRANCH   1   7
TORSDOF 4
REMARK  Name = ../refined-set-2016/4c1y/4c1y_pocket.pdb
REMARK  109 active torsions:
REMARK  status: ('A' for Active; 'I' for Inactive)
REMARK    1  A    between atoms: _1  and  _3
REMARK    2  A    between atoms: _3  and  _4
REMARK    3  A    between atoms: _3  and  _6
REMARK    4  A    between atoms: _9  and  _11
REMARK    5  A    between atoms: _11  and  _12
REMARK    6  A    between atoms: _11  and  _14
REMARK    7  A    between atoms: _14  and  _15
REMARK    8  A    between atoms: _17  and  _19
REMARK    9  A    between atoms: _19  and  _20
REMARK   10  A    between atoms: _19  and  _22
REMARK   11  A    between atoms: _22  and  _23
REMARK   12  A    between atoms: _28  and  _30
REMARK   13  A    between atoms: _30  and  _31
REMARK   14  A    between atoms: _30  and  _33
REMARK   15  A    between atoms: _33  and  _34
REMARK   16  A    between atoms: _37  and  _39
REMARK   17  A    between atoms: _39  and  _40
REMARK   18  A    between atoms: _39  and  _42
REMARK   19  A    between atoms: _42  and  _43
REMARK   20  A    between atoms: _43  and  _44
REMARK   21  A    between atoms: _44  and  _45
REMARK   22  A    between atoms: _54  and  _56
REMARK   23  A    between atoms: _56  and  _57
REMARK   24  A    between atoms: _56  and  _59
REMARK   25  A    between atoms: _62  and  _64
REMARK   26  A    between atoms: _64  and  _65
REMARK   27  A    between atoms: _64  and  _67
REMARK   28  A    between atoms: _67  and  _68
REMARK   29  A    between atoms: _73  and  _74
REMARK   30  A    between atoms: _76  and  _78
REMARK   31  A    between atoms: _78  and  _79
REMARK   32  A    between atoms: _78  and  _81
REMARK   33  A    between atoms: _81  and  _82
REMARK   34  A    between atoms: _82  and  _83
REMARK   35  A    between atoms: _86  and  _88
REMARK   36  A    between atoms: _88  and  _89
REMARK   37  A    between atoms: _88  and  _91
REMARK   38  A    between atoms: _91  and  _92
REMARK   39  A    between atoms: _94  and  _96
REMARK   40  A    between atoms: _96  and  _97
REMARK   41  A    between atoms: _96  and  _99
REMARK   42  A    between atoms: _99  and  _100
REMARK   43  A    between atoms: _103  and  _105
REMARK   44  A    between atoms: _105  and  _106
REMARK   45  A    between atoms: _105  and  _108
REMARK   46  A    between atoms: _108  and  _109
REMARK   47  A    between atoms: _114  and  _115
REMARK   48  A    between atoms: _117  and  _119
REMARK   49  A    between atoms: _119  and  _120
REMARK   50  A    between atoms: _119  and  _122
REMARK   51  A    between atoms: _122  and  _123
REMARK   52  A    between atoms: _123  and  _124
REMARK   53  A    between atoms: _127  and  _129
REMARK   54  A    between atoms: _129  and  _130
REMARK   55  A    between atoms: _129  and  _132
REMARK   56  A    between atoms: _132  and  _133
REMARK   57  A    between atoms: _138  and  _140
REMARK   58  A    between atoms: _140  and  _141
REMARK   59  A    between atoms: _140  and  _143
REMARK   60  A    between atoms: _143  and  _144
REMARK   61  A    between atoms: _149  and  _151
REMARK   62  A    between atoms: _151  and  _152
REMARK   63  A    between atoms: _151  and  _154
REMARK   64  A    between atoms: _154  and  _155
REMARK   65  A    between atoms: _158  and  _160
REMARK   66  A    between atoms: _160  and  _161
REMARK   67  A    between atoms: _160  and  _163
REMARK   68  A    between atoms: _163  and  _164
REMARK   69  A    between atoms: _164  and  _165
REMARK   70  A    between atoms: _168  and  _170
REMARK   71  A    between atoms: _170  and  _171
REMARK   72  A    between atoms: _170  and  _173
REMARK   73  A    between atoms: _173  and  _174
REMARK   74  A    between atoms: _177  and  _179
REMARK   75  A    between atoms: _179  and  _180
REMARK   76  A    between atoms: _179  and  _182
REMARK   77  A    between atoms: _182  and  _183
REMARK   78  A    between atoms: _183  and  _184
REMARK   79  A    between atoms: _184  and  _185
REMARK   80  A    between atoms: _185  and  _186
REMARK   81  A    between atoms: _190  and  _192
REMARK   82  A    between atoms: _192  and  _193
REMARK   83  A    between atoms: _192  and  _195
REMARK   84  A    between atoms: _195  and  _196
REMARK   85  A    between atoms: _201  and  _203
REMARK   86  A    between atoms: _203  and  _204
REMARK   87  A    between atoms: _203  and  _206
REMARK   88  A    between atoms: _206  and  _207
REMARK   89  A    between atoms: _210  and  _212
REMARK   90  A    between atoms: _212  and  _213
REMARK   91  A    between atoms: _212  and  _215
REMARK   92  A    between atoms: _215  and  _216
REMARK   93  A    between atoms: _221  and  _222
REMARK   94  A    between atoms: _224  and  _226
REMARK   95  A    between atoms: _226  and  _227
REMARK   96  A    between atoms: _226  and  _229
REMARK   97  A    between atoms: _229  and  _230
REMARK   98  A    between atoms: _233  and  _235
REMARK   99  A    between atoms: _235  and  _236
REMARK  100  A    between atoms: _235  and  _238
REMARK  101  A    between atoms: _238  and  _239
REMARK  102  A    between atoms: _241  and  _243
REMARK  103  A    between atoms: _243  and  _244
REMARK  104  A    between atoms: _246  and  _248
REMARK  105  A    between atoms: _248  and  _249
REMARK  106  A    between atoms: _251  and  _253
REMARK  107  A    between atoms: _253  and  _254
REMARK  108  A    between atoms: _253  and  _256
REMARK  109  A    between atoms: _256  and  _257
REMARK                            x       y       z     vdW  Elec       q    Type
REMARK                         _______ _______ _______ _____ _____    ______ ____
ROOT
ATOM      1  CB  ASN A   1     -35.885  20.952 -11.023  0.00  0.00    +0.110 C 
ENDROOT
BRANCH   1   2
ATOM      2  CG  ASN A   1     -37.052  21.725 -11.559  0.00  0.00    +0.221 C 
ATOM      3  ND2 ASN A   1     -38.172  21.694 -10.821  0.00  0.00    -0.329 N 
ATOM      4 HD21 ASN A   1     -38.191  21.164  -9.927  0.00  0.00    +0.145 HD
ATOM      5 HD22 ASN A   1     -39.021  22.200 -11.143  0.00  0.00    +0.145 HD
ATOM      6  OD1 ASN A   1     -36.969  22.331 -12.619  0.00  0.00    -0.275 OA
ENDBRANCH   1   2
BRANCH   1   7
ATOM      7  CA  ASN A   1     -35.487  21.383  -9.606  0.00  0.00    +0.142 C 
BRANCH   7   8
ATOM      8  N   ASN A   1     -35.007  22.760  -9.661  0.00  0.00    -0.239 NA
ATOM      9  H   ASN A   1     -34.176  22.972 -10.250  0.00  0.00    +0.142 HD
ENDBRANCH   7   8
BRANCH   7  10
ATOM     10  C   ASN A   1     -34.468  20.403  -9.023  0.00  0.00    +0.225 C 
ATOM     11  O   ASN A   1     -34.335  19.301  -9.470  0.00  0.00    -0.287 OA
ENDBRANCH   7  10
ENDBRANCH   1   7
TORSDOF 4
REMARK  Name = ../refined-set-2016/4c1y/4c1y_pocket.pdb
REMARK  109 active torsions:
REMARK  status: ('A' for Active; 'I' for Inactive)
REMARK    1  A    between atoms: _1  and  _3
REMARK    2  A    between atoms: _3  and  _4
REMARK    3  A    between atoms: _3  and  _6
REMARK    4  A    between atoms: _9  and  _11
REMARK    5  A    between atoms: _11  and  _12
REMARK    6  A    between atoms: _11  and  _14
REMARK    7  A    between atoms: _14  and  _15
REMARK    8  A    between atoms: _17  and  _19
REMARK    9  A    between atoms: _19  and  _20
REMARK   10  A    between atoms: _19  and  _22
REMARK   11  A    between atoms: _22  and  _23
REMARK   12  A    between atoms: _28  and  _30
REMARK   13  A    between atoms: _30  and  _31
REMARK   14  A    between atoms: _30  and  _33
REMARK   15  A    between atoms: _33  and  _34
REMARK   16  A    between atoms: _37  and  _39
REMARK   17  A    between atoms: _39  and  _40
REMARK   18  A    between atoms: _39  and  _42
REMARK   19  A    between atoms: _42  and  _43
REMARK   20  A    between atoms: _43  and  _44
REMARK   21  A    between atoms: _44  and  _45
REMARK   22  A    between atoms: _54  and  _56
REMARK   23  A    between atoms: _56  and  _57
REMARK   24  A    between atoms: _56  and  _59
REMARK   25  A    between atoms: _62  and  _64
REMARK   26  A    between atoms: _64  and  _65
REMARK   27  A    between atoms: _64  and  _67
REMARK   28  A    between atoms: _67  and  _68
REMARK   29  A    between atoms: _73  and  _74
REMARK   30  A    between atoms: _76  and  _78
REMARK   31  A    between atoms: _78  and  _79
REMARK   32  A    between atoms: _78  and  _81
REMARK   33  A    between atoms: _81  and  _82
REMARK   34  A    between atoms: _82  and  _83
REMARK   35  A    between atoms: _86  and  _88
REMARK   36  A    between atoms: _88  and  _89
REMARK   37  A    between atoms: _88  and  _91
REMARK   38  A    between atoms: _91  and  _92
REMARK   39  A    between atoms: _94  and  _96
REMARK   40  A    between atoms: _96  and  _97
REMARK   41  A    between atoms: _96  and  _99
REMARK   42  A    between atoms: _99  and  _100
REMARK   43  A    between atoms: _103  and  _105
REMARK   44  A    between atoms: _105  and  _106
REMARK   45  A    between atoms: _105  and  _108
REMARK   46  A    between atoms: _108  and  _109
REMARK   47  A    between atoms: _114  and  _115
REMARK   48  A    between atoms: _117  and  _119
REMARK   49  A    between atoms: _119  and  _120
REMARK   50  A    between atoms: _119  and  _122
REMARK   51  A    between atoms: _122  and  _123
REMARK   52  A    between atoms: _123  and  _124
REMARK   53  A    between atoms: _127  and  _129
REMARK   54  A    between atoms: _129  and  _130
REMARK   55  A    between atoms: _129  and  _132
REMARK   56  A    between atoms: _132  and  _133
REMARK   57  A    between atoms: _138  and  _140
REMARK   58  A    between atoms: _140  and  _141
REMARK   59  A    between atoms: _140  and  _143
REMARK   60  A    between atoms: _143  and  _144
REMARK   61  A    between atoms: _149  and  _151
REMARK   62  A    between atoms: _151  and  _152
REMARK   63  A    between atoms: _151  and  _154
REMARK   64  A    between atoms: _154  and  _155
REMARK   65  A    between atoms: _158  and  _160
REMARK   66  A    between atoms: _160  and  _161
REMARK   67  A    between atoms: _160  and  _163
REMARK   68  A    between atoms: _163  and  _164
REMARK   69  A    between atoms: _164  and  _165
REMARK   70  A    between atoms: _168  and  _170
REMARK   71  A    between atoms: _170  and  _171
REMARK   72  A    between atoms: _170  and  _173
REMARK   73  A    between atoms: _173  and  _174
REMARK   74  A    between atoms: _177  and  _179
REMARK   75  A    between atoms: _179  and  _180
REMARK   76  A    between atoms: _179  and  _182
REMARK   77  A    between atoms: _182  and  _183
REMARK   78  A    between atoms: _183  and  _184
REMARK   79  A    between atoms: _184  and  _185
REMARK   80  A    between atoms: _185  and  _186
REMARK   81  A    between atoms: _190  and  _192
REMARK   82  A    between atoms: _192  and  _193
REMARK   83  A    between atoms: _192  and  _195
REMARK   84  A    between atoms: _195  and  _196
REMARK   85  A    between atoms: _201  and  _203
REMARK   86  A    between atoms: _203  and  _204
REMARK   87  A    between atoms: _203  and  _206
REMARK   88  A    between atoms: _206  and  _207
REMARK   89  A    between atoms: _210  and  _212
REMARK   90  A    between atoms: _212  and  _213
REMARK   91  A    between atoms: _212  and  _215
REMARK   92  A    between atoms: _215  and  _216
REMARK   93  A    between atoms: _221  and  _222
REMARK   94  A    between atoms: _224  and  _226
REMARK   95  A    between atoms: _226  and  _227
REMARK   96  A    between atoms: _226  and  _229
REMARK   97  A    between atoms: _229  and  _230
REMARK   98  A    between atoms: _233  and  _235
REMARK   99  A    between atoms: _235  and  _236
REMARK  100  A    between atoms: _235  and  _238
REMARK  101  A    between atoms: _238  and  _239
REMARK  102  A    between atoms: _241  and  _243
REMARK  103  A    between atoms: _243  and  _244
REMARK  104  A    between atoms: _246  and  _248
REMARK  105  A    between atoms: _248  and  _249
REMARK  106  A    between atoms: _251  and  _253
REMARK  107  A    between atoms: _253  and  _254
REMARK  108  A    between atoms: _253  and  _256
REMARK  109  A    between atoms: _256  and  _257
REMARK                            x       y       z     vdW  Elec       q    Type
REMARK                         _______ _______ _______ _____ _____    ______ ____
ROOT
ATOM      1  CA  ILE A   1     -33.600  17.195  -5.098  0.00  0.00    +0.133 C 
ENDROOT
BRANCH   1   2
ATOM      2  N   ILE A   1     -33.077  18.016  -6.162  0.00  0.00    -0.239 NA
ATOM      3  H   ILE A   1     -32.518  17.582  -6.924  0.00  0.00    +0.142 HD
ENDBRANCH   1   2
BRANCH   1   4
ATOM      4  C   ILE A   1     -32.546  16.851  -4.053  0.00  0.00    +0.224 C 
ATOM      5  O   ILE A   1     -32.855  16.205  -3.048  0.00  0.00    -0.287 OA
ENDBRANCH   1   4
BRANCH   1   6
ATOM      6  CB  ILE A   1     -34.247  15.907  -5.629  0.00  0.00    +0.023 C 
ATOM      7  CG2 ILE A   1     -35.527  16.280  -6.376  0.00  0.00    +0.002 C 
BRANCH   6   8
ATOM      8  CG1 ILE A   1     -33.270  15.109  -6.508  0.00  0.00    +0.002 C 
ATOM      9  CD1 ILE A   1     -33.563  13.600  -6.603  0.00  0.00    +0.000 C 
ENDBRANCH   6   8
ENDBRANCH   1   6
TORSDOF 4
REMARK  Name = ../refined-set-2016/4c1y/4c1y_pocket.pdb
REMARK  109 active torsions:
REMARK  status: ('A' for Active; 'I' for Inactive)
REMARK    1  A    between atoms: _1  and  _3
REMARK    2  A    between atoms: _3  and  _4
REMARK    3  A    between atoms: _3  and  _6
REMARK    4  A    between atoms: _9  and  _11
REMARK    5  A    between atoms: _11  and  _12
REMARK    6  A    between atoms: _11  and  _14
REMARK    7  A    between atoms: _14  and  _15
REMARK    8  A    between atoms: _17  and  _19
REMARK    9  A    between atoms: _19  and  _20
REMARK   10  A    between atoms: _19  and  _22
REMARK   11  A    between atoms: _22  and  _23
REMARK   12  A    between atoms: _28  and  _30
REMARK   13  A    between atoms: _30  and  _31
REMARK   14  A    between atoms: _30  and  _33
REMARK   15  A    between atoms: _33  and  _34
REMARK   16  A    between atoms: _37  and  _39
REMARK   17  A    between atoms: _39  and  _40
REMARK   18  A    between atoms: _39  and  _42
REMARK   19  A    between atoms: _42  and  _43
REMARK   20  A    between atoms: _43  and  _44
REMARK   21  A    between atoms: _44  and  _45
REMARK   22  A    between atoms: _54  and  _56
REMARK   23  A    between atoms: _56  and  _57
REMARK   24  A    between atoms: _56  and  _59
REMARK   25  A    between atoms: _62  and  _64
REMARK   26  A    between atoms: _64  and  _65
REMARK   27  A    between atoms: _64  and  _67
REMARK   28  A    between atoms: _67  and  _68
REMARK   29  A    between atoms: _73  and  _74
REMARK   30  A    between atoms: _76  and  _78
REMARK   31  A    between atoms: _78  and  _79
REMARK   32  A    between atoms: _78  and  _81
REMARK   33  A    between atoms: _81  and  _82
REMARK   34  A    between atoms: _82  and  _83
REMARK   35  A    between atoms: _86  and  _88
REMARK   36  A    between atoms: _88  and  _89
REMARK   37  A    between atoms: _88  and  _91
REMARK   38  A    between atoms: _91  and  _92
REMARK   39  A    between atoms: _94  and  _96
REMARK   40  A    between atoms: _96  and  _97
REMARK   41  A    between atoms: _96  and  _99
REMARK   42  A    between atoms: _99  and  _100
REMARK   43  A    between atoms: _103  and  _105
REMARK   44  A    between atoms: _105  and  _106
REMARK   45  A    between atoms: _105  and  _108
REMARK   46  A    between atoms: _108  and  _109
REMARK   47  A    between atoms: _114  and  _115
REMARK   48  A    between atoms: _117  and  _119
REMARK   49  A    between atoms: _119  and  _120
REMARK   50  A    between atoms: _119  and  _122
REMARK   51  A    between atoms: _122  and  _123
REMARK   52  A    between atoms: _123  and  _124
REMARK   53  A    between atoms: _127  and  _129
REMARK   54  A    between atoms: _129  and  _130
REMARK   55  A    between atoms: _129  and  _132
REMARK   56  A    between atoms: _132  and  _133
REMARK   57  A    between atoms: _138  and  _140
REMARK   58  A    between atoms: _140  and  _141
REMARK   59  A    between atoms: _140  and  _143
REMARK   60  A    between atoms: _143  and  _144
REMARK   61  A    between atoms: _149  and  _151
REMARK   62  A    between atoms: _151  and  _152
REMARK   63  A    between atoms: _151  and  _154
REMARK   64  A    between atoms: _154  and  _155
REMARK   65  A    between atoms: _158  and  _160
REMARK   66  A    between atoms: _160  and  _161
REMARK   67  A    between atoms: _160  and  _163
REMARK   68  A    between atoms: _163  and  _164
REMARK   69  A    between atoms: _164  and  _165
REMARK   70  A    between atoms: _168  and  _170
REMARK   71  A    between atoms: _170  and  _171
REMARK   72  A    between atoms: _170  and  _173
REMARK   73  A    between atoms: _173  and  _174
REMARK   74  A    between atoms: _177  and  _179
REMARK   75  A    between atoms: _179  and  _180
REMARK   76  A    between atoms: _179  and  _182
REMARK   77  A    between atoms: _182  and  _183
REMARK   78  A    between atoms: _183  and  _184
REMARK   79  A    between atoms: _184  and  _185
REMARK   80  A    between atoms: _185  and  _186
REMARK   81  A    between atoms: _190  and  _192
REMARK   82  A    between atoms: _192  and  _193
REMARK   83  A    between atoms: _192  and  _195
REMARK   84  A    between atoms: _195  and  _196
REMARK   85  A    between atoms: _201  and  _203
REMARK   86  A    between atoms: _203  and  _204
REMARK   87  A    between atoms: _203  and  _206
REMARK   88  A    between atoms: _206  and  _207
REMARK   89  A    between atoms: _210  and  _212
REMARK   90  A    between atoms: _212  and  _213
REMARK   91  A    between atoms: _212  and  _215
REMARK   92  A    between atoms: _215  and  _216
REMARK   93  A    between atoms: _221  and  _222
REMARK   94  A    between atoms: _224  and  _226
REMARK   95  A    between atoms: _226  and  _227
REMARK   96  A    between atoms: _226  and  _229
REMARK   97  A    between atoms: _229  and  _230
REMARK   98  A    between atoms: _233  and  _235
REMARK   99  A    between atoms: _235  and  _236
REMARK  100  A    between atoms: _235  and  _238
REMARK  101  A    between atoms: _238  and  _239
REMARK  102  A    between atoms: _241  and  _243
REMARK  103  A    between atoms: _243  and  _244
REMARK  104  A    between atoms: _246  and  _248
REMARK  105  A    between atoms: _248  and  _249
REMARK  106  A    between atoms: _251  and  _253
REMARK  107  A    between atoms: _253  and  _254
REMARK  108  A    between atoms: _253  and  _256
REMARK  109  A    between atoms: _256  and  _257
REMARK                            x       y       z     vdW  Elec       q    Type
REMARK                         _______ _______ _______ _____ _____    ______ ____
ROOT
ATOM      1  CA  LYS A   3     -46.665   7.830  -5.193  0.00  0.00    +0.149 C 
ENDROOT
BRANCH   1   3
ATOM      2  C   LEU A   2     -45.782   8.562  -7.315  0.00  0.00    +0.241 C 
ATOM      3  N   LYS A   3     -46.230   7.577  -6.553  0.00  0.00    -0.297 N 
ATOM      4  H   LYS A   3     -46.271   6.610  -6.934  0.00  0.00    +0.150 HD
ATOM      5  O   LEU A   2     -45.662   9.711  -6.914  0.00  0.00    -0.273 OA
BRANCH   2   6
ATOM      6  CA  LEU A   2     -45.325   8.184  -8.708  0.00  0.00    +0.149 C 
BRANCH   6   8
ATOM      7  C   GLU A   1     -45.219   5.819  -9.289  0.00  0.00    +0.238 C 
ATOM      8  N   LEU A   2     -45.933   6.942  -9.152  0.00  0.00    -0.297 N 
ATOM      9  H   LEU A   2     -46.950   6.925  -9.369  0.00  0.00    +0.150 HD
ATOM     10  O   GLU A   1     -43.980   5.773  -9.167  0.00  0.00    -0.274 OA
BRANCH   7  11
ATOM     11  CA  GLU A   1     -45.953   4.540  -9.624  0.00  0.00    +0.145 C 
BRANCH  11  12
ATOM     12  N   GLU A   1     -45.400   3.513  -8.753  0.00  0.00    -0.238 NA
ATOM     13  H   GLU A   1     -45.241   2.564  -9.147  0.00  0.00    +0.142 HD
ENDBRANCH  11  12
BRANCH  11  14
ATOM     14  CB  GLU A   1     -47.472   4.609  -9.493  0.00  0.00    +0.038 C 
BRANCH  14  15
ATOM     15  CG  GLU A   1     -48.128   3.264  -9.772  0.00  0.00    +0.116 C 
BRANCH  15  16
ATOM     16  CD  GLU A   1     -47.774   2.738 -11.168  0.00  0.00    +0.365 C 
ATOM     17  OE2 GLU A   1     -47.187   1.646 -11.280  0.00  0.00    -0.246 OA
ATOM     18  OE1 GLU A   1     -48.058   3.431 -12.173  0.00  0.00    -0.246 OA
ENDBRANCH  15  16
ENDBRANCH  14  15
ENDBRANCH  11  14
ENDBRANCH   7  11
ENDBRANCH   6   8
BRANCH   6  19
ATOM     19  CB  LEU A   2     -45.593   9.290  -9.699  0.00  0.00    +0.029 C 
BRANCH  19  20
ATOM     20  CG  LEU A   2     -44.960   8.961 -11.047  0.00  0.00    +0.002 C 
ATOM     21  CD2 LEU A   2     -43.419   8.984 -10.985  0.00  0.00    +0.000 C 
ATOM     22  CD1 LEU A   2     -45.441   9.925 -12.090  0.00  0.00    +0.000 C 
ENDBRANCH  19  20
ENDBRANCH   6  19
ENDBRANCH   2   6
ENDBRANCH   1   3
BRANCH   1  23
ATOM     23  C   LYS A   3     -45.469   7.884  -4.270  0.00  0.00    +0.241 C 
ATOM     24  O   LYS A   3     -45.410   8.735  -3.376  0.00  0.00    -0.273 OA
ATOM     25  N   HIS A   4     -44.544   6.932  -4.469  0.00  0.00    -0.297 N 
ATOM     26  H   HIS A   4     -44.706   6.254  -5.241  0.00  0.00    +0.150 HD
BRANCH  25  27
ATOM     27  CA  HIS A   4     -43.324   6.782  -3.676  0.00  0.00    +0.155 C 
BRANCH  27  28
ATOM     28  C   HIS A   4     -42.116   6.749  -4.618  0.00  0.00    +0.241 C 
ATOM     29  N   ILE A   5     -41.168   7.662  -4.452  0.00  0.00    -0.298 N 
ATOM     30  H   ILE A   5     -41.275   8.374  -3.702  0.00  0.00    +0.150 HD
ATOM     31  O   HIS A   4     -42.050   5.916  -5.502  0.00  0.00    -0.273 OA
BRANCH  29  32
ATOM     32  CA  ILE A   5     -39.968   7.691  -5.305  0.00  0.00    +0.137 C 
BRANCH  32  33
ATOM     33  C   ILE A   5     -38.734   7.702  -4.428  0.00  0.00    +0.227 C 
ATOM     34  O   ILE A   5     -38.753   8.224  -3.302  0.00  0.00    -0.286 OA
ENDBRANCH  32  33
BRANCH  32  35
ATOM     35  CB  ILE A   5     -39.936   8.912  -6.246  0.00  0.00    +0.026 C 
ATOM     36  CG2 ILE A   5     -38.789   8.787  -7.248  0.00  0.00    +0.002 C 
BRANCH  35  37
ATOM     37  CG1 ILE A   5     -41.269   9.098  -6.993  0.00  0.00    +0.002 C 
ATOM     38  CD1 ILE A   5     -41.322  10.343  -7.850  0.00  0.00    +0.000 C 
ENDBRANCH  35  37
ENDBRANCH  32  35
ENDBRANCH  29  32
ENDBRANCH  27  28
BRANCH  27  39
ATOM     39  CB  HIS A   4     -43.358   5.490  -2.873  0.00  0.00    +0.076 C 
BRANCH  39  40
ATOM     40  CG  HIS A   4     -44.468   5.408  -1.871  0.00  0.00    +0.082 A 
ATOM     41  ND1 HIS A   4     -44.511   6.185  -0.731  0.00  0.00    -0.227 NA
ATOM     42  CE1 HIS A   4     -45.585   5.876  -0.026  0.00  0.00    +0.199 A 
ATOM     43  NE2 HIS A   4     -46.231   4.915  -0.658  0.00  0.00    -0.221 NA
ATOM     44  CD2 HIS A   4     -45.557   4.609  -1.816  0.00  0.00    +0.115 A 
ENDBRANCH  39  40
ENDBRANCH  27  39
ENDBRANCH  25  27
ENDBRANCH   1  23
BRANCH   1  45
ATOM     45  CB  LYS A   3     -47.654   6.758  -4.726  0.00  0.00    +0.029 C 
BRANCH  45  46
ATOM     46  CG  LYS A   3     -48.307   7.057  -3.366  0.00  0.00    +0.000 C 
BRANCH  46  47
ATOM     47  CD  LYS A   3     -49.352   6.023  -2.953  0.00  0.00    -0.024 C 
BRANCH  47  48
ATOM     48  CE  LYS A   3     -49.796   6.241  -1.506  0.00  0.00    -0.086 C 
BRANCH  48  49
ATOM     49  NZ  LYS A   3     -50.081   4.949  -0.815  0.00  0.00    +0.380 N 
ATOM     50  HZ1 LYS A   3     -50.379   5.139   0.163  0.00  0.00    -0.089 HD
ATOM     51  HZ2 LYS A   3     -49.222   4.363  -0.809  0.00  0.00    -0.089 HD
ATOM     52  HZ3 LYS A   3     -50.840   4.448  -1.319  0.00  0.00    -0.089 HD
ENDBRANCH  48  49
ENDBRANCH  47  48
ENDBRANCH  46  47
ENDBRANCH  45  46
ENDBRANCH   1  45
TORSDOF 24
REMARK  Name = ../refined-set-2016/4c1y/4c1y_pocket.pdb
REMARK  109 active torsions:
REMARK  status: ('A' for Active; 'I' for Inactive)
REMARK    1  A    between atoms: _1  and  _3
REMARK    2  A    between atoms: _3  and  _4
REMARK    3  A    between atoms: _3  and  _6
REMARK    4  A    between atoms: _9  and  _11
REMARK    5  A    between atoms: _11  and  _12
REMARK    6  A    between atoms: _11  and  _14
REMARK    7  A    between atoms: _14  and  _15
REMARK    8  A    between atoms: _17  and  _19
REMARK    9  A    between atoms: _19  and  _20
REMARK   10  A    between atoms: _19  and  _22
REMARK   11  A    between atoms: _22  and  _23
REMARK   12  A    between atoms: _28  and  _30
REMARK   13  A    between atoms: _30  and  _31
REMARK   14  A    between atoms: _30  and  _33
REMARK   15  A    between atoms: _33  and  _34
REMARK   16  A    between atoms: _37  and  _39
REMARK   17  A    between atoms: _39  and  _40
REMARK   18  A    between atoms: _39  and  _42
REMARK   19  A    between atoms: _42  and  _43
REMARK   20  A    between atoms: _43  and  _44
REMARK   21  A    between atoms: _44  and  _45
REMARK   22  A    between atoms: _54  and  _56
REMARK   23  A    between atoms: _56  and  _57
REMARK   24  A    between atoms: _56  and  _59
REMARK   25  A    between atoms: _62  and  _64
REMARK   26  A    between atoms: _64  and  _65
REMARK   27  A    between atoms: _64  and  _67
REMARK   28  A    between atoms: _67  and  _68
REMARK   29  A    between atoms: _73  and  _74
REMARK   30  A    between atoms: _76  and  _78
REMARK   31  A    between atoms: _78  and  _79
REMARK   32  A    between atoms: _78  and  _81
REMARK   33  A    between atoms: _81  and  _82
REMARK   34  A    between atoms: _82  and  _83
REMARK   35  A    between atoms: _86  and  _88
REMARK   36  A    between atoms: _88  and  _89
REMARK   37  A    between atoms: _88  and  _91
REMARK   38  A    between atoms: _91  and  _92
REMARK   39  A    between atoms: _94  and  _96
REMARK   40  A    between atoms: _96  and  _97
REMARK   41  A    between atoms: _96  and  _99
REMARK   42  A    between atoms: _99  and  _100
REMARK   43  A    between atoms: _103  and  _105
REMARK   44  A    between atoms: _105  and  _106
REMARK   45  A    between atoms: _105  and  _108
REMARK   46  A    between atoms: _108  and  _109
REMARK   47  A    between atoms: _114  and  _115
REMARK   48  A    between atoms: _117  and  _119
REMARK   49  A    between atoms: _119  and  _120
REMARK   50  A    between atoms: _119  and  _122
REMARK   51  A    between atoms: _122  and  _123
REMARK   52  A    between atoms: _123  and  _124
REMARK   53  A    between atoms: _127  and  _129
REMARK   54  A    between atoms: _129  and  _130
REMARK   55  A    between atoms: _129  and  _132
REMARK   56  A    between atoms: _132  and  _133
REMARK   57  A    between atoms: _138  and  _140
REMARK   58  A    between atoms: _140  and  _141
REMARK   59  A    between atoms: _140  and  _143
REMARK   60  A    between atoms: _143  and  _144
REMARK   61  A    between atoms: _149  and  _151
REMARK   62  A    between atoms: _151  and  _152
REMARK   63  A    between atoms: _151  and  _154
REMARK   64  A    between atoms: _154  and  _155
REMARK   65  A    between atoms: _158  and  _160
REMARK   66  A    between atoms: _160  and  _161
REMARK   67  A    between atoms: _160  and  _163
REMARK   68  A    between atoms: _163  and  _164
REMARK   69  A    between atoms: _164  and  _165
REMARK   70  A    between atoms: _168  and  _170
REMARK   71  A    between atoms: _170  and  _171
REMARK   72  A    between atoms: _170  and  _173
REMARK   73  A    between atoms: _173  and  _174
REMARK   74  A    between atoms: _177  and  _179
REMARK   75  A    between atoms: _179  and  _180
REMARK   76  A    between atoms: _179  and  _182
REMARK   77  A    between atoms: _182  and  _183
REMARK   78  A    between atoms: _183  and  _184
REMARK   79  A    between atoms: _184  and  _185
REMARK   80  A    between atoms: _185  and  _186
REMARK   81  A    between atoms: _190  and  _192
REMARK   82  A    between atoms: _192  and  _193
REMARK   83  A    between atoms: _192  and  _195
REMARK   84  A    between atoms: _195  and  _196
REMARK   85  A    between atoms: _201  and  _203
REMARK   86  A    between atoms: _203  and  _204
REMARK   87  A    between atoms: _203  and  _206
REMARK   88  A    between atoms: _206  and  _207
REMARK   89  A    between atoms: _210  and  _212
REMARK   90  A    between atoms: _212  and  _213
REMARK   91  A    between atoms: _212  and  _215
REMARK   92  A    between atoms: _215  and  _216
REMARK   93  A    between atoms: _221  and  _222
REMARK   94  A    between atoms: _224  and  _226
REMARK   95  A    between atoms: _226  and  _227
REMARK   96  A    between atoms: _226  and  _229
REMARK   97  A    between atoms: _229  and  _230
REMARK   98  A    between atoms: _233  and  _235
REMARK   99  A    between atoms: _235  and  _236
REMARK  100  A    between atoms: _235  and  _238
REMARK  101  A    between atoms: _238  and  _239
REMARK  102  A    between atoms: _241  and  _243
REMARK  103  A    between atoms: _243  and  _244
REMARK  104  A    between atoms: _246  and  _248
REMARK  105  A    between atoms: _248  and  _249
REMARK  106  A    between atoms: _251  and  _253
REMARK  107  A    between atoms: _253  and  _254
REMARK  108  A    between atoms: _253  and  _256
REMARK  109  A    between atoms: _256  and  _257
REMARK                            x       y       z     vdW  Elec       q    Type
REMARK                         _______ _______ _______ _____ _____    ______ ____
ROOT
ATOM      1  CA  ASP A   2     -43.692  10.578  -0.960  0.00  0.00    +0.160 C 
ENDROOT
BRANCH   1   3
ATOM      2  C   TYR A   1     -41.521  10.687  -2.109  0.00  0.00    +0.239 C 
ATOM      3  N   ASP A   2     -42.404  11.211  -1.266  0.00  0.00    -0.297 N 
ATOM      4  H   ASP A   2     -42.172  12.112  -0.801  0.00  0.00    +0.150 HD
ATOM      5  O   TYR A   1     -41.650   9.553  -2.597  0.00  0.00    -0.274 OA
BRANCH   2   6
ATOM      6  CA  TYR A   1     -40.322  11.585  -2.439  0.00  0.00    +0.149 C 
BRANCH   6   7
ATOM      7  N   TYR A   1     -39.059  10.857  -2.214  0.00  0.00    -0.238 NA
ATOM      8  H   TYR A   1     -38.878   9.991  -2.761  0.00  0.00    +0.142 HD
ENDBRANCH   6   7
BRANCH   6   9
ATOM      9  CB  TYR A   1     -40.456  12.069  -3.881  0.00  0.00    +0.053 C 
BRANCH   9  10
ATOM     10  CG  TYR A   1     -41.765  12.789  -4.161  0.00  0.00    -0.020 A 
ATOM     11  CD2 TYR A   1     -41.829  14.179  -4.200  0.00  0.00    -0.001 A 
ATOM     12  CE2 TYR A   1     -43.025  14.832  -4.445  0.00  0.00    +0.036 A 
ATOM     13  CZ  TYR A   1     -44.180  14.097  -4.633  0.00  0.00    +0.134 A 
ATOM     14  CE1 TYR A   1     -44.160  12.731  -4.602  0.00  0.00    +0.036 A 
ATOM     15  CD1 TYR A   1     -42.956  12.080  -4.356  0.00  0.00    -0.001 A 
BRANCH  13  16
ATOM     16  OH  TYR A   1     -45.347  14.753  -4.878  0.00  0.00    -0.506 OA
ATOM     17  HH  TYR A   1     -46.077  14.094  -4.989  0.00  0.00    +0.292 HD
ENDBRANCH  13  16
ENDBRANCH   9  10
ENDBRANCH   6   9
ENDBRANCH   2   6
ENDBRANCH   1   3
BRANCH   1  18
ATOM     18  C   ASP A   2     -44.824  11.552  -1.329  0.00  0.00    +0.241 C 
ATOM     19  O   ASP A   2     -44.774  12.726  -0.993  0.00  0.00    -0.273 OA
ATOM     20  N   SER A   3     -45.833  11.057  -2.043  0.00  0.00    -0.295 N 
ATOM     21  H   SER A   3     -45.847  10.038  -2.249  0.00  0.00    +0.150 HD
BRANCH  20  22
ATOM     22  CA  SER A   3     -46.933  11.901  -2.553  0.00  0.00    +0.178 C 
BRANCH  22  23
ATOM     23  C   SER A   3     -47.651  12.476  -1.360  0.00  0.00    +0.243 C 
ATOM     24  O   SER A   3     -47.890  11.760  -0.417  0.00  0.00    -0.273 OA
ATOM     25  N   GLY A   4     -47.891  13.782  -1.357  0.00  0.00    -0.296 N 
ATOM     26  H   GLY A   4     -47.689  14.344  -2.208  0.00  0.00    +0.150 HD
BRANCH  25  27
ATOM     27  CA  GLY A   4     -48.444  14.447  -0.152  0.00  0.00    +0.163 C 
BRANCH  27  28
ATOM     28  C   GLY A   4     -47.431  14.695   0.960  0.00  0.00    +0.229 C 
ATOM     29  O   GLY A   4     -47.814  14.880   2.120  0.00  0.00    -0.286 OA
ENDBRANCH  27  28
ENDBRANCH  25  27
ENDBRANCH  22  23
BRANCH  22  30
ATOM     30  CB  SER A   3     -47.887  11.069  -3.377  0.00  0.00    +0.166 C 
BRANCH  30  31
ATOM     31  OG  SER A   3     -48.761  11.885  -4.087  0.00  0.00    -0.380 OA
ATOM     32  H   SER A   3     -49.377  11.322  -4.620  0.00  0.00    +0.211 HD
ENDBRANCH  30  31
ENDBRANCH  22  30
ENDBRANCH  20  22
ENDBRANCH   1  18
BRANCH   1  33
ATOM     33  CB  ASP A   2     -43.768  10.233   0.529  0.00  0.00    +0.143 C 
BRANCH  33  34
ATOM     34  CG  ASP A   2     -42.866   9.078   0.913  0.00  0.00    +0.367 C 
ATOM     35  OD2 ASP A   2     -42.554   8.922   2.124  0.00  0.00    -0.246 OA
ATOM     36  OD1 ASP A   2     -42.499   8.304   0.014  0.00  0.00    -0.246 OA
ENDBRANCH  33  34
ENDBRANCH   1  33
TORSDOF 15
REMARK  Name = ../refined-set-2016/4c1y/4c1y_pocket.pdb
REMARK  109 active torsions:
REMARK  status: ('A' for Active; 'I' for Inactive)
REMARK    1  A    between atoms: _1  and  _3
REMARK    2  A    between atoms: _3  and  _4
REMARK    3  A    between atoms: _3  and  _6
REMARK    4  A    between atoms: _9  and  _11
REMARK    5  A    between atoms: _11  and  _12
REMARK    6  A    between atoms: _11  and  _14
REMARK    7  A    between atoms: _14  and  _15
REMARK    8  A    between atoms: _17  and  _19
REMARK    9  A    between atoms: _19  and  _20
REMARK   10  A    between atoms: _19  and  _22
REMARK   11  A    between atoms: _22  and  _23
REMARK   12  A    between atoms: _28  and  _30
REMARK   13  A    between atoms: _30  and  _31
REMARK   14  A    between atoms: _30  and  _33
REMARK   15  A    between atoms: _33  and  _34
REMARK   16  A    between atoms: _37  and  _39
REMARK   17  A    between atoms: _39  and  _40
REMARK   18  A    between atoms: _39  and  _42
REMARK   19  A    between atoms: _42  and  _43
REMARK   20  A    between atoms: _43  and  _44
REMARK   21  A    between atoms: _44  and  _45
REMARK   22  A    between atoms: _54  and  _56
REMARK   23  A    between atoms: _56  and  _57
REMARK   24  A    between atoms: _56  and  _59
REMARK   25  A    between atoms: _62  and  _64
REMARK   26  A    between atoms: _64  and  _65
REMARK   27  A    between atoms: _64  and  _67
REMARK   28  A    between atoms: _67  and  _68
REMARK   29  A    between atoms: _73  and  _74
REMARK   30  A    between atoms: _76  and  _78
REMARK   31  A    between atoms: _78  and  _79
REMARK   32  A    between atoms: _78  and  _81
REMARK   33  A    between atoms: _81  and  _82
REMARK   34  A    between atoms: _82  and  _83
REMARK   35  A    between atoms: _86  and  _88
REMARK   36  A    between atoms: _88  and  _89
REMARK   37  A    between atoms: _88  and  _91
REMARK   38  A    between atoms: _91  and  _92
REMARK   39  A    between atoms: _94  and  _96
REMARK   40  A    between atoms: _96  and  _97
REMARK   41  A    between atoms: _96  and  _99
REMARK   42  A    between atoms: _99  and  _100
REMARK   43  A    between atoms: _103  and  _105
REMARK   44  A    between atoms: _105  and  _106
REMARK   45  A    between atoms: _105  and  _108
REMARK   46  A    between atoms: _108  and  _109
REMARK   47  A    between atoms: _114  and  _115
REMARK   48  A    between atoms: _117  and  _119
REMARK   49  A    between atoms: _119  and  _120
REMARK   50  A    between atoms: _119  and  _122
REMARK   51  A    between atoms: _122  and  _123
REMARK   52  A    between atoms: _123  and  _124
REMARK   53  A    between atoms: _127  and  _129
REMARK   54  A    between atoms: _129  and  _130
REMARK   55  A    between atoms: _129  and  _132
REMARK   56  A    between atoms: _132  and  _133
REMARK   57  A    between atoms: _138  and  _140
REMARK   58  A    between atoms: _140  and  _141
REMARK   59  A    between atoms: _140  and  _143
REMARK   60  A    between atoms: _143  and  _144
REMARK   61  A    between atoms: _149  and  _151
REMARK   62  A    between atoms: _151  and  _152
REMARK   63  A    between atoms: _151  and  _154
REMARK   64  A    between atoms: _154  and  _155
REMARK   65  A    between atoms: _158  and  _160
REMARK   66  A    between atoms: _160  and  _161
REMARK   67  A    between atoms: _160  and  _163
REMARK   68  A    between atoms: _163  and  _164
REMARK   69  A    between atoms: _164  and  _165
REMARK   70  A    between atoms: _168  and  _170
REMARK   71  A    between atoms: _170  and  _171
REMARK   72  A    between atoms: _170  and  _173
REMARK   73  A    between atoms: _173  and  _174
REMARK   74  A    between atoms: _177  and  _179
REMARK   75  A    between atoms: _179  and  _180
REMARK   76  A    between atoms: _179  and  _182
REMARK   77  A    between atoms: _182  and  _183
REMARK   78  A    between atoms: _183  and  _184
REMARK   79  A    between atoms: _184  and  _185
REMARK   80  A    between atoms: _185  and  _186
REMARK   81  A    between atoms: _190  and  _192
REMARK   82  A    between atoms: _192  and  _193
REMARK   83  A    between atoms: _192  and  _195
REMARK   84  A    between atoms: _195  and  _196
REMARK   85  A    between atoms: _201  and  _203
REMARK   86  A    between atoms: _203  and  _204
REMARK   87  A    between atoms: _203  and  _206
REMARK   88  A    between atoms: _206  and  _207
REMARK   89  A    between atoms: _210  and  _212
REMARK   90  A    between atoms: _212  and  _213
REMARK   91  A    between atoms: _212  and  _215
REMARK   92  A    between atoms: _215  and  _216
REMARK   93  A    between atoms: _221  and  _222
REMARK   94  A    between atoms: _224  and  _226
REMARK   95  A    between atoms: _226  and  _227
REMARK   96  A    between atoms: _226  and  _229
REMARK   97  A    between atoms: _229  and  _230
REMARK   98  A    between atoms: _233  and  _235
REMARK   99  A    between atoms: _235  and  _236
REMARK  100  A    between atoms: _235  and  _238
REMARK  101  A    between atoms: _238  and  _239
REMARK  102  A    between atoms: _241  and  _243
REMARK  103  A    between atoms: _243  and  _244
REMARK  104  A    between atoms: _246  and  _248
REMARK  105  A    between atoms: _248  and  _249
REMARK  106  A    between atoms: _251  and  _253
REMARK  107  A    between atoms: _253  and  _254
REMARK  108  A    between atoms: _253  and  _256
REMARK  109  A    between atoms: _256  and  _257
REMARK                            x       y       z     vdW  Elec       q    Type
REMARK                         _______ _______ _______ _____ _____    ______ ____
ROOT
ATOM      1  CB  TRP A   2     -38.070  16.130  -2.112  0.00  0.00    +0.056 C 
ENDROOT
BRANCH   1   2
ATOM      2  CG  TRP A   2     -38.410  15.708  -3.467  0.00  0.00    -0.002 A 
ATOM      3  CD2 TRP A   2     -37.964  14.523  -4.124  0.00  0.00    +0.013 A 
ATOM      4  CE3 TRP A   2     -37.150  13.452  -3.745  0.00  0.00    +0.001 A 
ATOM      5  CZ3 TRP A   2     -36.922  12.461  -4.639  0.00  0.00    +0.000 A 
ATOM      6  CH2 TRP A   2     -37.478  12.496  -5.917  0.00  0.00    +0.001 A 
ATOM      7  CZ2 TRP A   2     -38.266  13.530  -6.323  0.00  0.00    +0.017 A 
ATOM      8  CE2 TRP A   2     -38.487  14.550  -5.418  0.00  0.00    +0.056 A 
ATOM      9  NE1 TRP A   2     -39.229  15.694  -5.539  0.00  0.00    -0.352 N 
ATOM     10  HE1 TRP A   2     -39.748  15.992  -6.390  0.00  0.00    +0.166 HD
ATOM     11  CD1 TRP A   2     -39.176  16.378  -4.362  0.00  0.00    +0.068 A 
ENDBRANCH   1   2
BRANCH   1  12
ATOM     12  CA  TRP A   2     -38.944  15.511  -1.066  0.00  0.00    +0.141 C 
BRANCH  12  15
ATOM     13  C   GLY A   1     -41.324  15.428  -0.783  0.00  0.00    +0.240 C 
ATOM     14  O   GLY A   1     -41.284  14.316  -0.264  0.00  0.00    -0.274 OA
ATOM     15  N   TRP A   2     -40.249  16.105  -1.127  0.00  0.00    -0.298 N 
ATOM     16  H   TRP A   2     -40.347  17.089  -1.449  0.00  0.00    +0.150 HD
BRANCH  13  17
ATOM     17  CA  GLY A   1     -42.638  16.119  -1.067  0.00  0.00    +0.169 C 
BRANCH  17  18
ATOM     18  N   GLY A   1     -43.681  15.456  -0.334  0.00  0.00    -0.236 NA
ATOM     19  H   GLY A   1     -44.194  14.662  -0.768  0.00  0.00    +0.142 HD
ENDBRANCH  17  18
ENDBRANCH  13  17
ENDBRANCH  12  15
BRANCH  12  20
ATOM     20  C   TRP A   2     -38.311  15.727   0.273  0.00  0.00    +0.227 C 
ATOM     21  O   TRP A   2     -38.447  16.794   0.889  0.00  0.00    -0.286 OA
ENDBRANCH  12  20
ENDBRANCH   1  12
TORSDOF 6
