REMARK  Name = ../refined-set-2016/2o4l/2o4l_pocket.pdb
REMARK  224 active torsions:
REMARK  status: ('A' for Active; 'I' for Inactive)
REMARK    1  A    between atoms: _1  and  _3
REMARK    2  A    between atoms: _3  and  _4
REMARK    3  A    between atoms: _3  and  _6
REMARK    4  A    between atoms: _6  and  _7
REMARK    5  A    between atoms: _7  and  _8
REMARK    6  A    between atoms: _8  and  _9
REMARK    7  A    between atoms: _18  and  _20
REMARK    8  A    between atoms: _20  and  _21
REMARK    9  A    between atoms: _20  and  _23
REMARK   10  A    between atoms: _23  and  _24
REMARK   11  A    between atoms: _27  and  _29
REMARK   12  A    between atoms: _29  and  _30
REMARK   13  A    between atoms: _29  and  _32
REMARK   14  A    between atoms: _32  and  _33
REMARK   15  A    between atoms: _36  and  _38
REMARK   16  A    between atoms: _38  and  _39
REMARK   17  A    between atoms: _38  and  _41
REMARK   18  A    between atoms: _41  and  _42
REMARK   19  A    between atoms: _45  and  _47
REMARK   20  A    between atoms: _47  and  _48
REMARK   21  A    between atoms: _47  and  _50
REMARK   22  A    between atoms: _50  and  _51
REMARK   23  A    between atoms: _54  and  _56
REMARK   24  A    between atoms: _56  and  _57
REMARK   25  A    between atoms: _56  and  _59
REMARK   26  A    between atoms: _59  and  _60
REMARK   27  A    between atoms: _63  and  _65
REMARK   28  A    between atoms: _65  and  _66
REMARK   29  A    between atoms: _68  and  _70
REMARK   30  A    between atoms: _70  and  _71
REMARK   31  A    between atoms: _74  and  _76
REMARK   32  A    between atoms: _76  and  _77
REMARK   33  A    between atoms: _76  and  _79
REMARK   34  A    between atoms: _79  and  _80
REMARK   35  A    between atoms: _83  and  _85
REMARK   36  A    between atoms: _85  and  _86
REMARK   37  A    between atoms: _85  and  _88
REMARK   38  A    between atoms: _88  and  _89
REMARK   39  A    between atoms: _92  and  _94
REMARK   40  A    between atoms: _94  and  _95
REMARK   41  A    between atoms: _94  and  _97
REMARK   42  A    between atoms: _97  and  _98
REMARK   43  A    between atoms: _101  and  _103
REMARK   44  A    between atoms: _103  and  _104
REMARK   45  A    between atoms: _103  and  _106
REMARK   46  A    between atoms: _109  and  _111
REMARK   47  A    between atoms: _111  and  _112
REMARK   48  A    between atoms: _111  and  _114
REMARK   49  A    between atoms: _114  and  _115
REMARK   50  A    between atoms: _115  and  _116
REMARK   51  A    between atoms: _116  and  _117
REMARK   52  A    between atoms: _117  and  _118
REMARK   53  A    between atoms: _122  and  _124
REMARK   54  A    between atoms: _124  and  _125
REMARK   55  A    between atoms: _124  and  _127
REMARK   56  A    between atoms: _127  and  _128
REMARK   57  A    between atoms: _128  and  _129
REMARK   58  A    between atoms: _131  and  _133
REMARK   59  A    between atoms: _133  and  _134
REMARK   60  A    between atoms: _133  and  _136
REMARK   61  A    between atoms: _136  and  _137
REMARK   62  A    between atoms: _140  and  _142
REMARK   63  A    between atoms: _142  and  _143
REMARK   64  A    between atoms: _145  and  _147
REMARK   65  A    between atoms: _147  and  _148
REMARK   66  A    between atoms: _150  and  _152
REMARK   67  A    between atoms: _152  and  _153
REMARK   68  A    between atoms: _152  and  _155
REMARK   69  A    between atoms: _158  and  _160
REMARK   70  A    between atoms: _160  and  _161
REMARK   71  A    between atoms: _163  and  _165
REMARK   72  A    between atoms: _165  and  _166
REMARK   73  A    between atoms: _168  and  _170
REMARK   74  A    between atoms: _170  and  _171
REMARK   75  A    between atoms: _170  and  _173
REMARK   76  A    between atoms: _173  and  _174
REMARK   77  A    between atoms: _180  and  _182
REMARK   78  A    between atoms: _182  and  _183
REMARK   79  A    between atoms: _182  and  _185
REMARK   80  A    between atoms: _185  and  _186
REMARK   81  A    between atoms: _189  and  _191
REMARK   82  A    between atoms: _191  and  _192
REMARK   83  A    between atoms: _191  and  _194
REMARK   84  A    between atoms: _194  and  _195
REMARK   85  A    between atoms: _198  and  _200
REMARK   86  A    between atoms: _200  and  _201
REMARK   87  A    between atoms: _200  and  _203
REMARK   88  A    between atoms: _203  and  _204
REMARK   89  A    between atoms: _208  and  _209
REMARK   90  A    between atoms: _214  and  _216
REMARK   91  A    between atoms: _216  and  _217
REMARK   92  A    between atoms: _216  and  _219
REMARK   93  A    between atoms: _222  and  _224
REMARK   94  A    between atoms: _224  and  _225
REMARK   95  A    between atoms: _224  and  _227
REMARK   96  A    between atoms: _227  and  _228
REMARK   97  A    between atoms: _233  and  _235
REMARK   98  A    between atoms: _235  and  _236
REMARK   99  A    between atoms: _235  and  _238
REMARK  100  A    between atoms: _238  and  _239
REMARK  101  A    between atoms: _242  and  _244
REMARK  102  A    between atoms: _244  and  _245
REMARK  103  A    between atoms: _244  and  _247
REMARK  104  A    between atoms: _247  and  _248
REMARK  105  A    between atoms: _251  and  _253
REMARK  106  A    between atoms: _253  and  _254
REMARK  107  A    between atoms: _256  and  _258
REMARK  108  A    between atoms: _258  and  _259
REMARK  109  A    between atoms: _258  and  _261
REMARK  110  A    between atoms: _261  and  _262
REMARK  111  A    between atoms: _262  and  _263
REMARK  112  A    between atoms: _263  and  _264
REMARK  113  A    between atoms: _273  and  _275
REMARK  114  A    between atoms: _275  and  _276
REMARK  115  A    between atoms: _275  and  _278
REMARK  116  A    between atoms: _278  and  _279
REMARK  117  A    between atoms: _284  and  _286
REMARK  118  A    between atoms: _286  and  _287
REMARK  119  A    between atoms: _286  and  _289
REMARK  120  A    between atoms: _289  and  _290
REMARK  121  A    between atoms: _290  and  _291
REMARK  122  A    between atoms: _291  and  _292
REMARK  123  A    between atoms: _302  and  _303
REMARK  124  A    between atoms: _308  and  _310
REMARK  125  A    between atoms: _310  and  _311
REMARK  126  A    between atoms: _310  and  _313
REMARK  127  A    between atoms: _313  and  _314
REMARK  128  A    between atoms: _317  and  _319
REMARK  129  A    between atoms: _319  and  _320
REMARK  130  A    between atoms: _319  and  _322
REMARK  131  A    between atoms: _322  and  _323
REMARK  132  A    between atoms: _326  and  _328
REMARK  133  A    between atoms: _328  and  _329
REMARK  134  A    between atoms: _328  and  _331
REMARK  135  A    between atoms: _331  and  _332
REMARK  136  A    between atoms: _335  and  _337
REMARK  137  A    between atoms: _337  and  _338
REMARK  138  A    between atoms: _337  and  _340
REMARK  139  A    between atoms: _340  and  _341
REMARK  140  A    between atoms: _344  and  _346
REMARK  141  A    between atoms: _346  and  _347
REMARK  142  A    between atoms: _346  and  _349
REMARK  143  A    between atoms: _349  and  _350
REMARK  144  A    between atoms: _353  and  _355
REMARK  145  A    between atoms: _355  and  _356
REMARK  146  A    between atoms: _358  and  _360
REMARK  147  A    between atoms: _360  and  _361
REMARK  148  A    between atoms: _364  and  _366
REMARK  149  A    between atoms: _366  and  _367
REMARK  150  A    between atoms: _366  and  _369
REMARK  151  A    between atoms: _369  and  _370
REMARK  152  A    between atoms: _373  and  _375
REMARK  153  A    between atoms: _375  and  _376
REMARK  154  A    between atoms: _375  and  _378
REMARK  155  A    between atoms: _378  and  _379
REMARK  156  A    between atoms: _382  and  _384
REMARK  157  A    between atoms: _384  and  _385
REMARK  158  A    between atoms: _384  and  _387
REMARK  159  A    between atoms: _387  and  _388
REMARK  160  A    between atoms: _391  and  _393
REMARK  161  A    between atoms: _393  and  _394
REMARK  162  A    between atoms: _393  and  _396
REMARK  163  A    between atoms: _399  and  _401
REMARK  164  A    between atoms: _401  and  _402
REMARK  165  A    between atoms: _401  and  _404
REMARK  166  A    between atoms: _404  and  _405
REMARK  167  A    between atoms: _408  and  _410
REMARK  168  A    between atoms: _410  and  _411
REMARK  169  A    between atoms: _410  and  _413
REMARK  170  A    between atoms: _413  and  _414
REMARK  171  A    between atoms: _417  and  _419
REMARK  172  A    between atoms: _419  and  _420
REMARK  173  A    between atoms: _422  and  _424
REMARK  174  A    between atoms: _424  and  _425
REMARK  175  A    between atoms: _427  and  _429
REMARK  176  A    between atoms: _429  and  _430
REMARK  177  A    between atoms: _429  and  _432
REMARK  178  A    between atoms: _435  and  _437
REMARK  179  A    between atoms: _437  and  _438
REMARK  180  A    between atoms: _440  and  _442
REMARK  181  A    between atoms: _442  and  _443
REMARK  182  A    between atoms: _445  and  _447
REMARK  183  A    between atoms: _447  and  _448
REMARK  184  A    between atoms: _447  and  _450
REMARK  185  A    between atoms: _450  and  _451
REMARK  186  A    between atoms: _457  and  _459
REMARK  187  A    between atoms: _459  and  _460
REMARK  188  A    between atoms: _459  and  _462
REMARK  189  A    between atoms: _462  and  _463
REMARK  190  A    between atoms: _466  and  _468
REMARK  191  A    between atoms: _468  and  _469
REMARK  192  A    between atoms: _468  and  _471
REMARK  193  A    between atoms: _474  and  _476
REMARK  194  A    between atoms: _476  and  _477
REMARK  195  A    between atoms: _476  and  _479
REMARK  196  A    between atoms: _479  and  _480
REMARK  197  A    between atoms: _483  and  _485
REMARK  198  A    between atoms: _485  and  _486
REMARK  199  A    between atoms: _485  and  _488
REMARK  200  A    between atoms: _488  and  _489
REMARK  201  A    between atoms: _493  and  _494
REMARK  202  A    between atoms: _499  and  _501
REMARK  203  A    between atoms: _501  and  _502
REMARK  204  A    between atoms: _501  and  _504
REMARK  205  A    between atoms: _507  and  _509
REMARK  206  A    between atoms: _509  and  _510
REMARK  207  A    between atoms: _509  and  _512
REMARK  208  A    between atoms: _512  and  _513
REMARK  209  A    between atoms: _518  and  _520
REMARK  210  A    between atoms: _520  and  _521
REMARK  211  A    between atoms: _520  and  _523
REMARK  212  A    between atoms: _523  and  _524
REMARK  213  A    between atoms: _527  and  _529
REMARK  214  A    between atoms: _529  and  _530
REMARK  215  A    between atoms: _529  and  _532
REMARK  216  A    between atoms: _532  and  _533
REMARK  217  A    between atoms: _536  and  _538
REMARK  218  A    between atoms: _538  and  _539
REMARK  219  A    between atoms: _541  and  _543
REMARK  220  A    between atoms: _543  and  _544
REMARK  221  A    between atoms: _543  and  _546
REMARK  222  A    between atoms: _546  and  _547
REMARK  223  A    between atoms: _547  and  _548
REMARK  224  A    between atoms: _548  and  _549
REMARK                            x       y       z     vdW  Elec       q    Type
REMARK                         _______ _______ _______ _____ _____    ______ ____
ROOT
ATOM      1  NE  ARG A   1      -6.408  22.985  15.167  0.00  0.00    -0.265 N 
ATOM      2  HE  ARG A   1      -6.491  23.126  16.194  0.00  0.00    +0.259 HD
ATOM      3  CZ  ARG A   1      -6.821  23.971  14.374  0.00  0.00    +0.342 C 
ATOM      4  NH2 ARG A   1      -7.309  25.080  14.911  0.00  0.00    -0.292 N 
ATOM      5 HH21 ARG A   1      -7.367  25.175  15.945  0.00  0.00    +0.255 HD
ATOM      6 HH22 ARG A   1      -7.634  25.855  14.298  0.00  0.00    +0.255 HD
ATOM      7  NH1 ARG A   1      -6.787  23.833  13.055  0.00  0.00    -0.292 N 
ATOM      8 HH11 ARG A   1      -6.436  22.950  12.633  0.00  0.00    +0.255 HD
ATOM      9 HH12 ARG A   1      -7.112  24.608  12.443  0.00  0.00    +0.255 HD
ENDROOT
BRANCH   1  10
ATOM     10  CD  ARG A   1      -5.846  21.718  14.700  0.00  0.00    +0.174 C 
BRANCH  10  11
ATOM     11  CG  ARG A   1      -5.278  20.923  15.859  0.00  0.00    +0.045 C 
BRANCH  11  12
ATOM     12  CB  ARG A   1      -4.683  19.608  15.421  0.00  0.00    +0.029 C 
BRANCH  12  13
ATOM     13  CA  ARG A   1      -4.089  18.798  16.577  0.00  0.00    +0.133 C 
BRANCH  13  14
ATOM     14  N   ARG A   1      -2.863  19.443  17.066  0.00  0.00    -0.239 NA
ATOM     15  H   ARG A   1      -2.544  20.325  16.616  0.00  0.00    +0.142 HD
ENDBRANCH  13  14
BRANCH  13  16
ATOM     16  C   ARG A   1      -3.753  17.387  16.105  0.00  0.00    +0.224 C 
ATOM     17  O   ARG A   1      -2.779  17.201  15.373  0.00  0.00    -0.287 OA
ENDBRANCH  13  16
ENDBRANCH  12  13
ENDBRANCH  11  12
ENDBRANCH  10  11
ENDBRANCH   1  10
TORSDOF 6
REMARK  Name = ../refined-set-2016/2o4l/2o4l_pocket.pdb
REMARK  224 active torsions:
REMARK  status: ('A' for Active; 'I' for Inactive)
REMARK    1  A    between atoms: _1  and  _3
REMARK    2  A    between atoms: _3  and  _4
REMARK    3  A    between atoms: _3  and  _6
REMARK    4  A    between atoms: _6  and  _7
REMARK    5  A    between atoms: _7  and  _8
REMARK    6  A    between atoms: _8  and  _9
REMARK    7  A    between atoms: _18  and  _20
REMARK    8  A    between atoms: _20  and  _21
REMARK    9  A    between atoms: _20  and  _23
REMARK   10  A    between atoms: _23  and  _24
REMARK   11  A    between atoms: _27  and  _29
REMARK   12  A    between atoms: _29  and  _30
REMARK   13  A    between atoms: _29  and  _32
REMARK   14  A    between atoms: _32  and  _33
REMARK   15  A    between atoms: _36  and  _38
REMARK   16  A    between atoms: _38  and  _39
REMARK   17  A    between atoms: _38  and  _41
REMARK   18  A    between atoms: _41  and  _42
REMARK   19  A    between atoms: _45  and  _47
REMARK   20  A    between atoms: _47  and  _48
REMARK   21  A    between atoms: _47  and  _50
REMARK   22  A    between atoms: _50  and  _51
REMARK   23  A    between atoms: _54  and  _56
REMARK   24  A    between atoms: _56  and  _57
REMARK   25  A    between atoms: _56  and  _59
REMARK   26  A    between atoms: _59  and  _60
REMARK   27  A    between atoms: _63  and  _65
REMARK   28  A    between atoms: _65  and  _66
REMARK   29  A    between atoms: _68  and  _70
REMARK   30  A    between atoms: _70  and  _71
REMARK   31  A    between atoms: _74  and  _76
REMARK   32  A    between atoms: _76  and  _77
REMARK   33  A    between atoms: _76  and  _79
REMARK   34  A    between atoms: _79  and  _80
REMARK   35  A    between atoms: _83  and  _85
REMARK   36  A    between atoms: _85  and  _86
REMARK   37  A    between atoms: _85  and  _88
REMARK   38  A    between atoms: _88  and  _89
REMARK   39  A    between atoms: _92  and  _94
REMARK   40  A    between atoms: _94  and  _95
REMARK   41  A    between atoms: _94  and  _97
REMARK   42  A    between atoms: _97  and  _98
REMARK   43  A    between atoms: _101  and  _103
REMARK   44  A    between atoms: _103  and  _104
REMARK   45  A    between atoms: _103  and  _106
REMARK   46  A    between atoms: _109  and  _111
REMARK   47  A    between atoms: _111  and  _112
REMARK   48  A    between atoms: _111  and  _114
REMARK   49  A    between atoms: _114  and  _115
REMARK   50  A    between atoms: _115  and  _116
REMARK   51  A    between atoms: _116  and  _117
REMARK   52  A    between atoms: _117  and  _118
REMARK   53  A    between atoms: _122  and  _124
REMARK   54  A    between atoms: _124  and  _125
REMARK   55  A    between atoms: _124  and  _127
REMARK   56  A    between atoms: _127  and  _128
REMARK   57  A    between atoms: _128  and  _129
REMARK   58  A    between atoms: _131  and  _133
REMARK   59  A    between atoms: _133  and  _134
REMARK   60  A    between atoms: _133  and  _136
REMARK   61  A    between atoms: _136  and  _137
REMARK   62  A    between atoms: _140  and  _142
REMARK   63  A    between atoms: _142  and  _143
REMARK   64  A    between atoms: _145  and  _147
REMARK   65  A    between atoms: _147  and  _148
REMARK   66  A    between atoms: _150  and  _152
REMARK   67  A    between atoms: _152  and  _153
REMARK   68  A    between atoms: _152  and  _155
REMARK   69  A    between atoms: _158  and  _160
REMARK   70  A    between atoms: _160  and  _161
REMARK   71  A    between atoms: _163  and  _165
REMARK   72  A    between atoms: _165  and  _166
REMARK   73  A    between atoms: _168  and  _170
REMARK   74  A    between atoms: _170  and  _171
REMARK   75  A    between atoms: _170  and  _173
REMARK   76  A    between atoms: _173  and  _174
REMARK   77  A    between atoms: _180  and  _182
REMARK   78  A    between atoms: _182  and  _183
REMARK   79  A    between atoms: _182  and  _185
REMARK   80  A    between atoms: _185  and  _186
REMARK   81  A    between atoms: _189  and  _191
REMARK   82  A    between atoms: _191  and  _192
REMARK   83  A    between atoms: _191  and  _194
REMARK   84  A    between atoms: _194  and  _195
REMARK   85  A    between atoms: _198  and  _200
REMARK   86  A    between atoms: _200  and  _201
REMARK   87  A    between atoms: _200  and  _203
REMARK   88  A    between atoms: _203  and  _204
REMARK   89  A    between atoms: _208  and  _209
REMARK   90  A    between atoms: _214  and  _216
REMARK   91  A    between atoms: _216  and  _217
REMARK   92  A    between atoms: _216  and  _219
REMARK   93  A    between atoms: _222  and  _224
REMARK   94  A    between atoms: _224  and  _225
REMARK   95  A    between atoms: _224  and  _227
REMARK   96  A    between atoms: _227  and  _228
REMARK   97  A    between atoms: _233  and  _235
REMARK   98  A    between atoms: _235  and  _236
REMARK   99  A    between atoms: _235  and  _238
REMARK  100  A    between atoms: _238  and  _239
REMARK  101  A    between atoms: _242  and  _244
REMARK  102  A    between atoms: _244  and  _245
REMARK  103  A    between atoms: _244  and  _247
REMARK  104  A    between atoms: _247  and  _248
REMARK  105  A    between atoms: _251  and  _253
REMARK  106  A    between atoms: _253  and  _254
REMARK  107  A    between atoms: _256  and  _258
REMARK  108  A    between atoms: _258  and  _259
REMARK  109  A    between atoms: _258  and  _261
REMARK  110  A    between atoms: _261  and  _262
REMARK  111  A    between atoms: _262  and  _263
REMARK  112  A    between atoms: _263  and  _264
REMARK  113  A    between atoms: _273  and  _275
REMARK  114  A    between atoms: _275  and  _276
REMARK  115  A    between atoms: _275  and  _278
REMARK  116  A    between atoms: _278  and  _279
REMARK  117  A    between atoms: _284  and  _286
REMARK  118  A    between atoms: _286  and  _287
REMARK  119  A    between atoms: _286  and  _289
REMARK  120  A    between atoms: _289  and  _290
REMARK  121  A    between atoms: _290  and  _291
REMARK  122  A    between atoms: _291  and  _292
REMARK  123  A    between atoms: _302  and  _303
REMARK  124  A    between atoms: _308  and  _310
REMARK  125  A    between atoms: _310  and  _311
REMARK  126  A    between atoms: _310  and  _313
REMARK  127  A    between atoms: _313  and  _314
REMARK  128  A    between atoms: _317  and  _319
REMARK  129  A    between atoms: _319  and  _320
REMARK  130  A    between atoms: _319  and  _322
REMARK  131  A    between atoms: _322  and  _323
REMARK  132  A    between atoms: _326  and  _328
REMARK  133  A    between atoms: _328  and  _329
REMARK  134  A    between atoms: _328  and  _331
REMARK  135  A    between atoms: _331  and  _332
REMARK  136  A    between atoms: _335  and  _337
REMARK  137  A    between atoms: _337  and  _338
REMARK  138  A    between atoms: _337  and  _340
REMARK  139  A    between atoms: _340  and  _341
REMARK  140  A    between atoms: _344  and  _346
REMARK  141  A    between atoms: _346  and  _347
REMARK  142  A    between atoms: _346  and  _349
REMARK  143  A    between atoms: _349  and  _350
REMARK  144  A    between atoms: _353  and  _355
REMARK  145  A    between atoms: _355  and  _356
REMARK  146  A    between atoms: _358  and  _360
REMARK  147  A    between atoms: _360  and  _361
REMARK  148  A    between atoms: _364  and  _366
REMARK  149  A    between atoms: _366  and  _367
REMARK  150  A    between atoms: _366  and  _369
REMARK  151  A    between atoms: _369  and  _370
REMARK  152  A    between atoms: _373  and  _375
REMARK  153  A    between atoms: _375  and  _376
REMARK  154  A    between atoms: _375  and  _378
REMARK  155  A    between atoms: _378  and  _379
REMARK  156  A    between atoms: _382  and  _384
REMARK  157  A    between atoms: _384  and  _385
REMARK  158  A    between atoms: _384  and  _387
REMARK  159  A    between atoms: _387  and  _388
REMARK  160  A    between atoms: _391  and  _393
REMARK  161  A    between atoms: _393  and  _394
REMARK  162  A    between atoms: _393  and  _396
REMARK  163  A    between atoms: _399  and  _401
REMARK  164  A    between atoms: _401  and  _402
REMARK  165  A    between atoms: _401  and  _404
REMARK  166  A    between atoms: _404  and  _405
REMARK  167  A    between atoms: _408  and  _410
REMARK  168  A    between atoms: _410  and  _411
REMARK  169  A    between atoms: _410  and  _413
REMARK  170  A    between atoms: _413  and  _414
REMARK  171  A    between atoms: _417  and  _419
REMARK  172  A    between atoms: _419  and  _420
REMARK  173  A    between atoms: _422  and  _424
REMARK  174  A    between atoms: _424  and  _425
REMARK  175  A    between atoms: _427  and  _429
REMARK  176  A    between atoms: _429  and  _430
REMARK  177  A    between atoms: _429  and  _432
REMARK  178  A    between atoms: _435  and  _437
REMARK  179  A    between atoms: _437  and  _438
REMARK  180  A    between atoms: _440  and  _442
REMARK  181  A    between atoms: _442  and  _443
REMARK  182  A    between atoms: _445  and  _447
REMARK  183  A    between atoms: _447  and  _448
REMARK  184  A    between atoms: _447  and  _450
REMARK  185  A    between atoms: _450  and  _451
REMARK  186  A    between atoms: _457  and  _459
REMARK  187  A    between atoms: _459  and  _460
REMARK  188  A    between atoms: _459  and  _462
REMARK  189  A    between atoms: _462  and  _463
REMARK  190  A    between atoms: _466  and  _468
REMARK  191  A    between atoms: _468  and  _469
REMARK  192  A    between atoms: _468  and  _471
REMARK  193  A    between atoms: _474  and  _476
REMARK  194  A    between atoms: _476  and  _477
REMARK  195  A    between atoms: _476  and  _479
REMARK  196  A    between atoms: _479  and  _480
REMARK  197  A    between atoms: _483  and  _485
REMARK  198  A    between atoms: _485  and  _486
REMARK  199  A    between atoms: _485  and  _488
REMARK  200  A    between atoms: _488  and  _489
REMARK  201  A    between atoms: _493  and  _494
REMARK  202  A    between atoms: _499  and  _501
REMARK  203  A    between atoms: _501  and  _502
REMARK  204  A    between atoms: _501  and  _504
REMARK  205  A    between atoms: _507  and  _509
REMARK  206  A    between atoms: _509  and  _510
REMARK  207  A    between atoms: _509  and  _512
REMARK  208  A    between atoms: _512  and  _513
REMARK  209  A    between atoms: _518  and  _520
REMARK  210  A    between atoms: _520  and  _521
REMARK  211  A    between atoms: _520  and  _523
REMARK  212  A    between atoms: _523  and  _524
REMARK  213  A    between atoms: _527  and  _529
REMARK  214  A    between atoms: _529  and  _530
REMARK  215  A    between atoms: _529  and  _532
REMARK  216  A    between atoms: _532  and  _533
REMARK  217  A    between atoms: _536  and  _538
REMARK  218  A    between atoms: _538  and  _539
REMARK  219  A    between atoms: _541  and  _543
REMARK  220  A    between atoms: _543  and  _544
REMARK  221  A    between atoms: _543  and  _546
REMARK  222  A    between atoms: _546  and  _547
REMARK  223  A    between atoms: _547  and  _548
REMARK  224  A    between atoms: _548  and  _549
REMARK                            x       y       z     vdW  Elec       q    Type
REMARK                         _______ _______ _______ _____ _____    ______ ____
ROOT
ATOM      1  CA  LEU A   1      -4.338  14.997  12.312  0.00  0.00    +0.133 C 
ENDROOT
BRANCH   1   2
ATOM      2  N   LEU A   1      -4.027  15.182  13.720  0.00  0.00    -0.239 NA
ATOM      3  H   LEU A   1      -3.162  15.702  13.971  0.00  0.00    +0.142 HD
ENDBRANCH   1   2
BRANCH   1   4
ATOM      4  C   LEU A   1      -3.668  13.736  11.789  0.00  0.00    +0.224 C 
ATOM      5  O   LEU A   1      -2.502  13.476  12.079  0.00  0.00    -0.287 OA
ENDBRANCH   1   4
BRANCH   1   6
ATOM      6  CB  LEU A   1      -3.868  16.214  11.506  0.00  0.00    +0.025 C 
BRANCH   6   7
ATOM      7  CG  LEU A   1      -4.541  17.532  11.907  0.00  0.00    +0.002 C 
ATOM      8  CD2 LEU A   1      -3.730  18.742  11.440  0.00  0.00    +0.000 C 
ATOM      9  CD1 LEU A   1      -5.961  17.615  11.384  0.00  0.00    +0.000 C 
ENDBRANCH   6   7
ENDBRANCH   1   6
TORSDOF 4
REMARK  Name = ../refined-set-2016/2o4l/2o4l_pocket.pdb
REMARK  224 active torsions:
REMARK  status: ('A' for Active; 'I' for Inactive)
REMARK    1  A    between atoms: _1  and  _3
REMARK    2  A    between atoms: _3  and  _4
REMARK    3  A    between atoms: _3  and  _6
REMARK    4  A    between atoms: _6  and  _7
REMARK    5  A    between atoms: _7  and  _8
REMARK    6  A    between atoms: _8  and  _9
REMARK    7  A    between atoms: _18  and  _20
REMARK    8  A    between atoms: _20  and  _21
REMARK    9  A    between atoms: _20  and  _23
REMARK   10  A    between atoms: _23  and  _24
REMARK   11  A    between atoms: _27  and  _29
REMARK   12  A    between atoms: _29  and  _30
REMARK   13  A    between atoms: _29  and  _32
REMARK   14  A    between atoms: _32  and  _33
REMARK   15  A    between atoms: _36  and  _38
REMARK   16  A    between atoms: _38  and  _39
REMARK   17  A    between atoms: _38  and  _41
REMARK   18  A    between atoms: _41  and  _42
REMARK   19  A    between atoms: _45  and  _47
REMARK   20  A    between atoms: _47  and  _48
REMARK   21  A    between atoms: _47  and  _50
REMARK   22  A    between atoms: _50  and  _51
REMARK   23  A    between atoms: _54  and  _56
REMARK   24  A    between atoms: _56  and  _57
REMARK   25  A    between atoms: _56  and  _59
REMARK   26  A    between atoms: _59  and  _60
REMARK   27  A    between atoms: _63  and  _65
REMARK   28  A    between atoms: _65  and  _66
REMARK   29  A    between atoms: _68  and  _70
REMARK   30  A    between atoms: _70  and  _71
REMARK   31  A    between atoms: _74  and  _76
REMARK   32  A    between atoms: _76  and  _77
REMARK   33  A    between atoms: _76  and  _79
REMARK   34  A    between atoms: _79  and  _80
REMARK   35  A    between atoms: _83  and  _85
REMARK   36  A    between atoms: _85  and  _86
REMARK   37  A    between atoms: _85  and  _88
REMARK   38  A    between atoms: _88  and  _89
REMARK   39  A    between atoms: _92  and  _94
REMARK   40  A    between atoms: _94  and  _95
REMARK   41  A    between atoms: _94  and  _97
REMARK   42  A    between atoms: _97  and  _98
REMARK   43  A    between atoms: _101  and  _103
REMARK   44  A    between atoms: _103  and  _104
REMARK   45  A    between atoms: _103  and  _106
REMARK   46  A    between atoms: _109  and  _111
REMARK   47  A    between atoms: _111  and  _112
REMARK   48  A    between atoms: _111  and  _114
REMARK   49  A    between atoms: _114  and  _115
REMARK   50  A    between atoms: _115  and  _116
REMARK   51  A    between atoms: _116  and  _117
REMARK   52  A    between atoms: _117  and  _118
REMARK   53  A    between atoms: _122  and  _124
REMARK   54  A    between atoms: _124  and  _125
REMARK   55  A    between atoms: _124  and  _127
REMARK   56  A    between atoms: _127  and  _128
REMARK   57  A    between atoms: _128  and  _129
REMARK   58  A    between atoms: _131  and  _133
REMARK   59  A    between atoms: _133  and  _134
REMARK   60  A    between atoms: _133  and  _136
REMARK   61  A    between atoms: _136  and  _137
REMARK   62  A    between atoms: _140  and  _142
REMARK   63  A    between atoms: _142  and  _143
REMARK   64  A    between atoms: _145  and  _147
REMARK   65  A    between atoms: _147  and  _148
REMARK   66  A    between atoms: _150  and  _152
REMARK   67  A    between atoms: _152  and  _153
REMARK   68  A    between atoms: _152  and  _155
REMARK   69  A    between atoms: _158  and  _160
REMARK   70  A    between atoms: _160  and  _161
REMARK   71  A    between atoms: _163  and  _165
REMARK   72  A    between atoms: _165  and  _166
REMARK   73  A    between atoms: _168  and  _170
REMARK   74  A    between atoms: _170  and  _171
REMARK   75  A    between atoms: _170  and  _173
REMARK   76  A    between atoms: _173  and  _174
REMARK   77  A    between atoms: _180  and  _182
REMARK   78  A    between atoms: _182  and  _183
REMARK   79  A    between atoms: _182  and  _185
REMARK   80  A    between atoms: _185  and  _186
REMARK   81  A    between atoms: _189  and  _191
REMARK   82  A    between atoms: _191  and  _192
REMARK   83  A    between atoms: _191  and  _194
REMARK   84  A    between atoms: _194  and  _195
REMARK   85  A    between atoms: _198  and  _200
REMARK   86  A    between atoms: _200  and  _201
REMARK   87  A    between atoms: _200  and  _203
REMARK   88  A    between atoms: _203  and  _204
REMARK   89  A    between atoms: _208  and  _209
REMARK   90  A    between atoms: _214  and  _216
REMARK   91  A    between atoms: _216  and  _217
REMARK   92  A    between atoms: _216  and  _219
REMARK   93  A    between atoms: _222  and  _224
REMARK   94  A    between atoms: _224  and  _225
REMARK   95  A    between atoms: _224  and  _227
REMARK   96  A    between atoms: _227  and  _228
REMARK   97  A    between atoms: _233  and  _235
REMARK   98  A    between atoms: _235  and  _236
REMARK   99  A    between atoms: _235  and  _238
REMARK  100  A    between atoms: _238  and  _239
REMARK  101  A    between atoms: _242  and  _244
REMARK  102  A    between atoms: _244  and  _245
REMARK  103  A    between atoms: _244  and  _247
REMARK  104  A    between atoms: _247  and  _248
REMARK  105  A    between atoms: _251  and  _253
REMARK  106  A    between atoms: _253  and  _254
REMARK  107  A    between atoms: _256  and  _258
REMARK  108  A    between atoms: _258  and  _259
REMARK  109  A    between atoms: _258  and  _261
REMARK  110  A    between atoms: _261  and  _262
REMARK  111  A    between atoms: _262  and  _263
REMARK  112  A    between atoms: _263  and  _264
REMARK  113  A    between atoms: _273  and  _275
REMARK  114  A    between atoms: _275  and  _276
REMARK  115  A    between atoms: _275  and  _278
REMARK  116  A    between atoms: _278  and  _279
REMARK  117  A    between atoms: _284  and  _286
REMARK  118  A    between atoms: _286  and  _287
REMARK  119  A    between atoms: _286  and  _289
REMARK  120  A    between atoms: _289  and  _290
REMARK  121  A    between atoms: _290  and  _291
REMARK  122  A    between atoms: _291  and  _292
REMARK  123  A    between atoms: _302  and  _303
REMARK  124  A    between atoms: _308  and  _310
REMARK  125  A    between atoms: _310  and  _311
REMARK  126  A    between atoms: _310  and  _313
REMARK  127  A    between atoms: _313  and  _314
REMARK  128  A    between atoms: _317  and  _319
REMARK  129  A    between atoms: _319  and  _320
REMARK  130  A    between atoms: _319  and  _322
REMARK  131  A    between atoms: _322  and  _323
REMARK  132  A    between atoms: _326  and  _328
REMARK  133  A    between atoms: _328  and  _329
REMARK  134  A    between atoms: _328  and  _331
REMARK  135  A    between atoms: _331  and  _332
REMARK  136  A    between atoms: _335  and  _337
REMARK  137  A    between atoms: _337  and  _338
REMARK  138  A    between atoms: _337  and  _340
REMARK  139  A    between atoms: _340  and  _341
REMARK  140  A    between atoms: _344  and  _346
REMARK  141  A    between atoms: _346  and  _347
REMARK  142  A    between atoms: _346  and  _349
REMARK  143  A    between atoms: _349  and  _350
REMARK  144  A    between atoms: _353  and  _355
REMARK  145  A    between atoms: _355  and  _356
REMARK  146  A    between atoms: _358  and  _360
REMARK  147  A    between atoms: _360  and  _361
REMARK  148  A    between atoms: _364  and  _366
REMARK  149  A    between atoms: _366  and  _367
REMARK  150  A    between atoms: _366  and  _369
REMARK  151  A    between atoms: _369  and  _370
REMARK  152  A    between atoms: _373  and  _375
REMARK  153  A    between atoms: _375  and  _376
REMARK  154  A    between atoms: _375  and  _378
REMARK  155  A    between atoms: _378  and  _379
REMARK  156  A    between atoms: _382  and  _384
REMARK  157  A    between atoms: _384  and  _385
REMARK  158  A    between atoms: _384  and  _387
REMARK  159  A    between atoms: _387  and  _388
REMARK  160  A    between atoms: _391  and  _393
REMARK  161  A    between atoms: _393  and  _394
REMARK  162  A    between atoms: _393  and  _396
REMARK  163  A    between atoms: _399  and  _401
REMARK  164  A    between atoms: _401  and  _402
REMARK  165  A    between atoms: _401  and  _404
REMARK  166  A    between atoms: _404  and  _405
REMARK  167  A    between atoms: _408  and  _410
REMARK  168  A    between atoms: _410  and  _411
REMARK  169  A    between atoms: _410  and  _413
REMARK  170  A    between atoms: _413  and  _414
REMARK  171  A    between atoms: _417  and  _419
REMARK  172  A    between atoms: _419  and  _420
REMARK  173  A    between atoms: _422  and  _424
REMARK  174  A    between atoms: _424  and  _425
REMARK  175  A    between atoms: _427  and  _429
REMARK  176  A    between atoms: _429  and  _430
REMARK  177  A    between atoms: _429  and  _432
REMARK  178  A    between atoms: _435  and  _437
REMARK  179  A    between atoms: _437  and  _438
REMARK  180  A    between atoms: _440  and  _442
REMARK  181  A    between atoms: _442  and  _443
REMARK  182  A    between atoms: _445  and  _447
REMARK  183  A    between atoms: _447  and  _448
REMARK  184  A    between atoms: _447  and  _450
REMARK  185  A    between atoms: _450  and  _451
REMARK  186  A    between atoms: _457  and  _459
REMARK  187  A    between atoms: _459  and  _460
REMARK  188  A    between atoms: _459  and  _462
REMARK  189  A    between atoms: _462  and  _463
REMARK  190  A    between atoms: _466  and  _468
REMARK  191  A    between atoms: _468  and  _469
REMARK  192  A    between atoms: _468  and  _471
REMARK  193  A    between atoms: _474  and  _476
REMARK  194  A    between atoms: _476  and  _477
REMARK  195  A    between atoms: _476  and  _479
REMARK  196  A    between atoms: _479  and  _480
REMARK  197  A    between atoms: _483  and  _485
REMARK  198  A    between atoms: _485  and  _486
REMARK  199  A    between atoms: _485  and  _488
REMARK  200  A    between atoms: _488  and  _489
REMARK  201  A    between atoms: _493  and  _494
REMARK  202  A    between atoms: _499  and  _501
REMARK  203  A    between atoms: _501  and  _502
REMARK  204  A    between atoms: _501  and  _504
REMARK  205  A    between atoms: _507  and  _509
REMARK  206  A    between atoms: _509  and  _510
REMARK  207  A    between atoms: _509  and  _512
REMARK  208  A    between atoms: _512  and  _513
REMARK  209  A    between atoms: _518  and  _520
REMARK  210  A    between atoms: _520  and  _521
REMARK  211  A    between atoms: _520  and  _523
REMARK  212  A    between atoms: _523  and  _524
REMARK  213  A    between atoms: _527  and  _529
REMARK  214  A    between atoms: _529  and  _530
REMARK  215  A    between atoms: _529  and  _532
REMARK  216  A    between atoms: _532  and  _533
REMARK  217  A    between atoms: _536  and  _538
REMARK  218  A    between atoms: _538  and  _539
REMARK  219  A    between atoms: _541  and  _543
REMARK  220  A    between atoms: _543  and  _544
REMARK  221  A    between atoms: _543  and  _546
REMARK  222  A    between atoms: _546  and  _547
REMARK  223  A    between atoms: _547  and  _548
REMARK  224  A    between atoms: _548  and  _549
REMARK                            x       y       z     vdW  Elec       q    Type
REMARK                         _______ _______ _______ _____ _____    ______ ____
ROOT
ATOM      1  C   GLY A   5     -17.102  14.728  20.022  0.00  0.00    +0.243 C 
ATOM      2  O   GLY A   5     -18.257  14.994  20.373  0.00  0.00    -0.273 OA
ATOM      3  N   ALA A   6     -16.784  14.296  18.802  0.00  0.00    -0.297 N 
ATOM      4  H   ALA A   6     -15.798  14.024  18.615  0.00  0.00    +0.150 HD
ENDROOT
BRANCH   3   5
ATOM      5  CA  ALA A   6     -17.758  14.186  17.710  0.00  0.00    +0.149 C 
ATOM      6  CB  ALA A   6     -17.058  14.396  16.392  0.00  0.00    +0.031 C 
BRANCH   5   7
ATOM      7  C   ALA A   6     -18.455  12.831  17.716  0.00  0.00    +0.241 C 
ATOM      8  N   ASP A   7     -19.788  12.820  17.721  0.00  0.00    -0.297 N 
ATOM      9  H   ASP A   7     -20.316  13.710  17.821  0.00  0.00    +0.150 HD
ATOM     10  O   ALA A   6     -17.783  11.795  17.678  0.00  0.00    -0.273 OA
BRANCH   8  11
ATOM     11  CA  ASP A   7     -20.512  11.543  17.584  0.00  0.00    +0.160 C 
BRANCH  11  12
ATOM     12  C   ASP A   7     -20.227  10.907  16.228  0.00  0.00    +0.241 C 
ATOM     13  O   ASP A   7     -20.089   9.690  16.108  0.00  0.00    -0.273 OA
ATOM     14  N   ASP A   8     -20.155  11.769  15.207  0.00  0.00    -0.297 N 
ATOM     15  H   ASP A   8     -20.084  12.783  15.427  0.00  0.00    +0.150 HD
BRANCH  14  16
ATOM     16  CA  ASP A   8     -20.170  11.370  13.804  0.00  0.00    +0.160 C 
BRANCH  16  17
ATOM     17  C   ASP A   8     -18.908  11.813  13.082  0.00  0.00    +0.241 C 
ATOM     18  O   ASP A   8     -18.203  12.694  13.537  0.00  0.00    -0.273 OA
ATOM     19  N   THR A   9     -18.663  11.189  11.943  0.00  0.00    -0.295 N 
ATOM     20  H   THR A   9     -19.291  10.406  11.673  0.00  0.00    +0.150 HD
BRANCH  19  21
ATOM     21  CA  THR A   9     -17.571  11.527  11.043  0.00  0.00    +0.176 C 
BRANCH  21  22
ATOM     22  C   THR A   9     -18.115  12.422   9.949  0.00  0.00    +0.243 C 
ATOM     23  N   VAL A  10     -17.492  13.589   9.781  0.00  0.00    -0.298 N 
ATOM     24  H   VAL A  10     -16.645  13.797  10.348  0.00  0.00    +0.150 HD
ATOM     25  O   THR A   9     -19.119  12.082   9.316  0.00  0.00    -0.273 OA
BRANCH  23  26
ATOM     26  CA  VAL A  10     -17.966  14.583   8.823  0.00  0.00    +0.137 C 
BRANCH  26  27
ATOM     27  CB  VAL A  10     -18.874  15.710   9.430  0.00  0.00    +0.026 C 
ATOM     28  CG2 VAL A  10     -18.152  16.485  10.511  0.00  0.00    +0.002 C 
ATOM     29  CG1 VAL A  10     -19.380  16.651   8.322  0.00  0.00    +0.002 C 
ENDBRANCH  26  27
BRANCH  26  30
ATOM     30  C   VAL A  10     -16.777  15.090   8.018  0.00  0.00    +0.227 C 
ATOM     31  O   VAL A  10     -15.768  15.544   8.575  0.00  0.00    -0.286 OA
ENDBRANCH  26  30
ENDBRANCH  23  26
ENDBRANCH  21  22
BRANCH  21  32
ATOM     32  CB  THR A   9     -16.998  10.227  10.476  0.00  0.00    +0.137 C 
ATOM     33  CG2 THR A   9     -15.985  10.474   9.368  0.00  0.00    +0.034 C 
BRANCH  32  34
ATOM     34  OG1 THR A   9     -16.390   9.509  11.564  0.00  0.00    -0.382 OA
ATOM     35  HG1 THR A   9     -17.074   9.314  12.252  0.00  0.00    +0.210 HD
ENDBRANCH  32  34
ENDBRANCH  21  32
ENDBRANCH  19  21
ENDBRANCH  16  17
BRANCH  16  36
ATOM     36  CB  ASP A   8     -21.351  12.028  13.072  0.00  0.00    +0.143 C 
BRANCH  36  37
ATOM     37  CG  ASP A   8     -22.690  11.809  13.754  0.00  0.00    +0.367 C 
ATOM     38  OD2 ASP A   8     -22.888  10.760  14.402  0.00  0.00    -0.246 OA
ATOM     39  OD1 ASP A   8     -23.555  12.702  13.618  0.00  0.00    -0.246 OA
ENDBRANCH  36  37
ENDBRANCH  16  36
ENDBRANCH  14  16
ENDBRANCH  11  12
BRANCH  11  40
ATOM     40  CB  ASP A   7     -22.034  11.729  17.665  0.00  0.00    +0.143 C 
BRANCH  40  41
ATOM     41  CG  ASP A   7     -22.519  12.236  19.005  0.00  0.00    +0.367 C 
ATOM     42  OD2 ASP A   7     -21.813  12.153  20.026  0.00  0.00    -0.246 OA
ATOM     43  OD1 ASP A   7     -23.676  12.705  19.040  0.00  0.00    -0.246 OA
ENDBRANCH  40  41
ENDBRANCH  11  40
ENDBRANCH   8  11
ENDBRANCH   5   7
ENDBRANCH   3   5
BRANCH   1  44
ATOM     44  CA  GLY A   5     -15.978  14.887  21.023  0.00  0.00    +0.176 C 
BRANCH  44  47
ATOM     45  C   THR A   4     -14.663  12.826  20.962  0.00  0.00    +0.243 C 
ATOM     46  O   THR A   4     -15.511  12.149  21.535  0.00  0.00    -0.273 OA
ATOM     47  N   GLY A   5     -14.791  14.127  20.691  0.00  0.00    -0.295 N 
ATOM     48  H   GLY A   5     -14.003  14.616  20.221  0.00  0.00    +0.150 HD
BRANCH  45  49
ATOM     49  CA  THR A   4     -13.355  12.161  20.535  0.00  0.00    +0.176 C 
BRANCH  49  51
ATOM     50  C   ASP A   3     -13.034  13.138  18.341  0.00  0.00    +0.241 C 
ATOM     51  N   THR A   4     -12.608  12.964  19.586  0.00  0.00    -0.295 N 
ATOM     52  H   THR A   4     -11.720  13.413  19.887  0.00  0.00    +0.150 HD
ATOM     53  O   ASP A   3     -14.123  12.710  17.939  0.00  0.00    -0.273 OA
BRANCH  50  54
ATOM     54  CA  ASP A   3     -12.140  13.978  17.436  0.00  0.00    +0.160 C 
BRANCH  54  57
ATOM     55  C   LEU A   2     -10.002  13.258  16.500  0.00  0.00    +0.241 C 
ATOM     56  O   LEU A   2      -9.351  13.922  17.318  0.00  0.00    -0.273 OA
ATOM     57  N   ASP A   3     -11.330  13.153  16.539  0.00  0.00    -0.297 N 
ATOM     58  H   ASP A   3     -11.803  12.467  15.916  0.00  0.00    +0.150 HD
BRANCH  55  59
ATOM     59  CA  LEU A   2      -9.304  12.505  15.378  0.00  0.00    +0.149 C 
BRANCH  59  61
ATOM     60  C   LEU A   1      -9.511  14.171  13.603  0.00  0.00    +0.238 C 
ATOM     61  N   LEU A   2      -8.739  13.508  14.465  0.00  0.00    -0.297 N 
ATOM     62  H   LEU A   2      -7.718  13.705  14.491  0.00  0.00    +0.150 HD
ATOM     63  O   LEU A   1     -10.709  13.928  13.474  0.00  0.00    -0.274 OA
BRANCH  60  64
ATOM     64  CA  LEU A   1      -8.846  15.266  12.759  0.00  0.00    +0.145 C 
BRANCH  64  65
ATOM     65  N   LEU A   1      -9.035  15.035  11.335  0.00  0.00    -0.238 NA
ATOM     66  H   LEU A   1      -9.912  15.385  10.899  0.00  0.00    +0.142 HD
ENDBRANCH  64  65
BRANCH  64  67
ATOM     67  CB  LEU A   1      -9.435  16.633  13.082  0.00  0.00    +0.026 C 
BRANCH  67  68
ATOM     68  CG  LEU A   1      -9.329  17.126  14.518  0.00  0.00    +0.002 C 
ATOM     69  CD2 LEU A   1      -7.895  17.418  14.930  0.00  0.00    +0.000 C 
ATOM     70  CD1 LEU A   1     -10.191  18.365  14.654  0.00  0.00    +0.000 C 
ENDBRANCH  67  68
ENDBRANCH  64  67
ENDBRANCH  60  64
ENDBRANCH  59  61
BRANCH  59  71
ATOM     71  CB  LEU A   2      -8.210  11.597  15.955  0.00  0.00    +0.029 C 
BRANCH  71  72
ATOM     72  CG  LEU A   2      -7.364  10.826  14.932  0.00  0.00    +0.002 C 
ATOM     73  CD2 LEU A   2      -6.331  10.000  15.671  0.00  0.00    +0.000 C 
ATOM     74  CD1 LEU A   2      -8.217   9.935  14.036  0.00  0.00    +0.000 C 
ENDBRANCH  71  72
ENDBRANCH  59  71
ENDBRANCH  55  59
ENDBRANCH  54  57
BRANCH  54  75
ATOM     75  CB  ASP A   3     -12.977  14.951  16.612  0.00  0.00    +0.143 C 
BRANCH  75  76
ATOM     76  CG  ASP A   3     -13.774  15.920  17.473  0.00  0.00    +0.367 C 
ATOM     77  OD2 ASP A   3     -13.829  15.768  18.707  0.00  0.00    -0.246 OA
ATOM     78  OD1 ASP A   3     -14.294  16.884  16.879  0.00  0.00    -0.246 OA
ENDBRANCH  75  76
ENDBRANCH  54  75
ENDBRANCH  50  54
ENDBRANCH  49  51
BRANCH  49  79
ATOM     79  CB  THR A   4     -12.528  11.878  21.793  0.00  0.00    +0.137 C 
ATOM     80  CG2 THR A   4     -11.290  11.073  21.463  0.00  0.00    +0.034 C 
BRANCH  79  81
ATOM     81  OG1 THR A   4     -12.129  13.114  22.392  0.00  0.00    -0.382 OA
ATOM     82  HG1 THR A   4     -12.934  13.636  22.637  0.00  0.00    +0.210 HD
ENDBRANCH  79  81
ENDBRANCH  49  79
ENDBRANCH  45  49
ENDBRANCH  44  47
ENDBRANCH   1  44
TORSDOF 35
REMARK  Name = ../refined-set-2016/2o4l/2o4l_pocket.pdb
REMARK  224 active torsions:
REMARK  status: ('A' for Active; 'I' for Inactive)
REMARK    1  A    between atoms: _1  and  _3
REMARK    2  A    between atoms: _3  and  _4
REMARK    3  A    between atoms: _3  and  _6
REMARK    4  A    between atoms: _6  and  _7
REMARK    5  A    between atoms: _7  and  _8
REMARK    6  A    between atoms: _8  and  _9
REMARK    7  A    between atoms: _18  and  _20
REMARK    8  A    between atoms: _20  and  _21
REMARK    9  A    between atoms: _20  and  _23
REMARK   10  A    between atoms: _23  and  _24
REMARK   11  A    between atoms: _27  and  _29
REMARK   12  A    between atoms: _29  and  _30
REMARK   13  A    between atoms: _29  and  _32
REMARK   14  A    between atoms: _32  and  _33
REMARK   15  A    between atoms: _36  and  _38
REMARK   16  A    between atoms: _38  and  _39
REMARK   17  A    between atoms: _38  and  _41
REMARK   18  A    between atoms: _41  and  _42
REMARK   19  A    between atoms: _45  and  _47
REMARK   20  A    between atoms: _47  and  _48
REMARK   21  A    between atoms: _47  and  _50
REMARK   22  A    between atoms: _50  and  _51
REMARK   23  A    between atoms: _54  and  _56
REMARK   24  A    between atoms: _56  and  _57
REMARK   25  A    between atoms: _56  and  _59
REMARK   26  A    between atoms: _59  and  _60
REMARK   27  A    between atoms: _63  and  _65
REMARK   28  A    between atoms: _65  and  _66
REMARK   29  A    between atoms: _68  and  _70
REMARK   30  A    between atoms: _70  and  _71
REMARK   31  A    between atoms: _74  and  _76
REMARK   32  A    between atoms: _76  and  _77
REMARK   33  A    between atoms: _76  and  _79
REMARK   34  A    between atoms: _79  and  _80
REMARK   35  A    between atoms: _83  and  _85
REMARK   36  A    between atoms: _85  and  _86
REMARK   37  A    between atoms: _85  and  _88
REMARK   38  A    between atoms: _88  and  _89
REMARK   39  A    between atoms: _92  and  _94
REMARK   40  A    between atoms: _94  and  _95
REMARK   41  A    between atoms: _94  and  _97
REMARK   42  A    between atoms: _97  and  _98
REMARK   43  A    between atoms: _101  and  _103
REMARK   44  A    between atoms: _103  and  _104
REMARK   45  A    between atoms: _103  and  _106
REMARK   46  A    between atoms: _109  and  _111
REMARK   47  A    between atoms: _111  and  _112
REMARK   48  A    between atoms: _111  and  _114
REMARK   49  A    between atoms: _114  and  _115
REMARK   50  A    between atoms: _115  and  _116
REMARK   51  A    between atoms: _116  and  _117
REMARK   52  A    between atoms: _117  and  _118
REMARK   53  A    between atoms: _122  and  _124
REMARK   54  A    between atoms: _124  and  _125
REMARK   55  A    between atoms: _124  and  _127
REMARK   56  A    between atoms: _127  and  _128
REMARK   57  A    between atoms: _128  and  _129
REMARK   58  A    between atoms: _131  and  _133
REMARK   59  A    between atoms: _133  and  _134
REMARK   60  A    between atoms: _133  and  _136
REMARK   61  A    between atoms: _136  and  _137
REMARK   62  A    between atoms: _140  and  _142
REMARK   63  A    between atoms: _142  and  _143
REMARK   64  A    between atoms: _145  and  _147
REMARK   65  A    between atoms: _147  and  _148
REMARK   66  A    between atoms: _150  and  _152
REMARK   67  A    between atoms: _152  and  _153
REMARK   68  A    between atoms: _152  and  _155
REMARK   69  A    between atoms: _158  and  _160
REMARK   70  A    between atoms: _160  and  _161
REMARK   71  A    between atoms: _163  and  _165
REMARK   72  A    between atoms: _165  and  _166
REMARK   73  A    between atoms: _168  and  _170
REMARK   74  A    between atoms: _170  and  _171
REMARK   75  A    between atoms: _170  and  _173
REMARK   76  A    between atoms: _173  and  _174
REMARK   77  A    between atoms: _180  and  _182
REMARK   78  A    between atoms: _182  and  _183
REMARK   79  A    between atoms: _182  and  _185
REMARK   80  A    between atoms: _185  and  _186
REMARK   81  A    between atoms: _189  and  _191
REMARK   82  A    between atoms: _191  and  _192
REMARK   83  A    between atoms: _191  and  _194
REMARK   84  A    between atoms: _194  and  _195
REMARK   85  A    between atoms: _198  and  _200
REMARK   86  A    between atoms: _200  and  _201
REMARK   87  A    between atoms: _200  and  _203
REMARK   88  A    between atoms: _203  and  _204
REMARK   89  A    between atoms: _208  and  _209
REMARK   90  A    between atoms: _214  and  _216
REMARK   91  A    between atoms: _216  and  _217
REMARK   92  A    between atoms: _216  and  _219
REMARK   93  A    between atoms: _222  and  _224
REMARK   94  A    between atoms: _224  and  _225
REMARK   95  A    between atoms: _224  and  _227
REMARK   96  A    between atoms: _227  and  _228
REMARK   97  A    between atoms: _233  and  _235
REMARK   98  A    between atoms: _235  and  _236
REMARK   99  A    between atoms: _235  and  _238
REMARK  100  A    between atoms: _238  and  _239
REMARK  101  A    between atoms: _242  and  _244
REMARK  102  A    between atoms: _244  and  _245
REMARK  103  A    between atoms: _244  and  _247
REMARK  104  A    between atoms: _247  and  _248
REMARK  105  A    between atoms: _251  and  _253
REMARK  106  A    between atoms: _253  and  _254
REMARK  107  A    between atoms: _256  and  _258
REMARK  108  A    between atoms: _258  and  _259
REMARK  109  A    between atoms: _258  and  _261
REMARK  110  A    between atoms: _261  and  _262
REMARK  111  A    between atoms: _262  and  _263
REMARK  112  A    between atoms: _263  and  _264
REMARK  113  A    between atoms: _273  and  _275
REMARK  114  A    between atoms: _275  and  _276
REMARK  115  A    between atoms: _275  and  _278
REMARK  116  A    between atoms: _278  and  _279
REMARK  117  A    between atoms: _284  and  _286
REMARK  118  A    between atoms: _286  and  _287
REMARK  119  A    between atoms: _286  and  _289
REMARK  120  A    between atoms: _289  and  _290
REMARK  121  A    between atoms: _290  and  _291
REMARK  122  A    between atoms: _291  and  _292
REMARK  123  A    between atoms: _302  and  _303
REMARK  124  A    between atoms: _308  and  _310
REMARK  125  A    between atoms: _310  and  _311
REMARK  126  A    between atoms: _310  and  _313
REMARK  127  A    between atoms: _313  and  _314
REMARK  128  A    between atoms: _317  and  _319
REMARK  129  A    between atoms: _319  and  _320
REMARK  130  A    between atoms: _319  and  _322
REMARK  131  A    between atoms: _322  and  _323
REMARK  132  A    between atoms: _326  and  _328
REMARK  133  A    between atoms: _328  and  _329
REMARK  134  A    between atoms: _328  and  _331
REMARK  135  A    between atoms: _331  and  _332
REMARK  136  A    between atoms: _335  and  _337
REMARK  137  A    between atoms: _337  and  _338
REMARK  138  A    between atoms: _337  and  _340
REMARK  139  A    between atoms: _340  and  _341
REMARK  140  A    between atoms: _344  and  _346
REMARK  141  A    between atoms: _346  and  _347
REMARK  142  A    between atoms: _346  and  _349
REMARK  143  A    between atoms: _349  and  _350
REMARK  144  A    between atoms: _353  and  _355
REMARK  145  A    between atoms: _355  and  _356
REMARK  146  A    between atoms: _358  and  _360
REMARK  147  A    between atoms: _360  and  _361
REMARK  148  A    between atoms: _364  and  _366
REMARK  149  A    between atoms: _366  and  _367
REMARK  150  A    between atoms: _366  and  _369
REMARK  151  A    between atoms: _369  and  _370
REMARK  152  A    between atoms: _373  and  _375
REMARK  153  A    between atoms: _375  and  _376
REMARK  154  A    between atoms: _375  and  _378
REMARK  155  A    between atoms: _378  and  _379
REMARK  156  A    between atoms: _382  and  _384
REMARK  157  A    between atoms: _384  and  _385
REMARK  158  A    between atoms: _384  and  _387
REMARK  159  A    between atoms: _387  and  _388
REMARK  160  A    between atoms: _391  and  _393
REMARK  161  A    between atoms: _393  and  _394
REMARK  162  A    between atoms: _393  and  _396
REMARK  163  A    between atoms: _399  and  _401
REMARK  164  A    between atoms: _401  and  _402
REMARK  165  A    between atoms: _401  and  _404
REMARK  166  A    between atoms: _404  and  _405
REMARK  167  A    between atoms: _408  and  _410
REMARK  168  A    between atoms: _410  and  _411
REMARK  169  A    between atoms: _410  and  _413
REMARK  170  A    between atoms: _413  and  _414
REMARK  171  A    between atoms: _417  and  _419
REMARK  172  A    between atoms: _419  and  _420
REMARK  173  A    between atoms: _422  and  _424
REMARK  174  A    between atoms: _424  and  _425
REMARK  175  A    between atoms: _427  and  _429
REMARK  176  A    between atoms: _429  and  _430
REMARK  177  A    between atoms: _429  and  _432
REMARK  178  A    between atoms: _435  and  _437
REMARK  179  A    between atoms: _437  and  _438
REMARK  180  A    between atoms: _440  and  _442
REMARK  181  A    between atoms: _442  and  _443
REMARK  182  A    between atoms: _445  and  _447
REMARK  183  A    between atoms: _447  and  _448
REMARK  184  A    between atoms: _447  and  _450
REMARK  185  A    between atoms: _450  and  _451
REMARK  186  A    between atoms: _457  and  _459
REMARK  187  A    between atoms: _459  and  _460
REMARK  188  A    between atoms: _459  and  _462
REMARK  189  A    between atoms: _462  and  _463
REMARK  190  A    between atoms: _466  and  _468
REMARK  191  A    between atoms: _468  and  _469
REMARK  192  A    between atoms: _468  and  _471
REMARK  193  A    between atoms: _474  and  _476
REMARK  194  A    between atoms: _476  and  _477
REMARK  195  A    between atoms: _476  and  _479
REMARK  196  A    between atoms: _479  and  _480
REMARK  197  A    between atoms: _483  and  _485
REMARK  198  A    between atoms: _485  and  _486
REMARK  199  A    between atoms: _485  and  _488
REMARK  200  A    between atoms: _488  and  _489
REMARK  201  A    between atoms: _493  and  _494
REMARK  202  A    between atoms: _499  and  _501
REMARK  203  A    between atoms: _501  and  _502
REMARK  204  A    between atoms: _501  and  _504
REMARK  205  A    between atoms: _507  and  _509
REMARK  206  A    between atoms: _509  and  _510
REMARK  207  A    between atoms: _509  and  _512
REMARK  208  A    between atoms: _512  and  _513
REMARK  209  A    between atoms: _518  and  _520
REMARK  210  A    between atoms: _520  and  _521
REMARK  211  A    between atoms: _520  and  _523
REMARK  212  A    between atoms: _523  and  _524
REMARK  213  A    between atoms: _527  and  _529
REMARK  214  A    between atoms: _529  and  _530
REMARK  215  A    between atoms: _529  and  _532
REMARK  216  A    between atoms: _532  and  _533
REMARK  217  A    between atoms: _536  and  _538
REMARK  218  A    between atoms: _538  and  _539
REMARK  219  A    between atoms: _541  and  _543
REMARK  220  A    between atoms: _543  and  _544
REMARK  221  A    between atoms: _543  and  _546
REMARK  222  A    between atoms: _546  and  _547
REMARK  223  A    between atoms: _547  and  _548
REMARK  224  A    between atoms: _548  and  _549
REMARK                            x       y       z     vdW  Elec       q    Type
REMARK                         _______ _______ _______ _____ _____    ______ ____
ROOT
ATOM      1  C   GLY A   5     -21.739  22.972  17.782  0.00  0.00    +0.243 C 
ATOM      2  N   VAL A   6     -20.484  23.292  18.081  0.00  0.00    -0.297 N 
ATOM      3  H   VAL A   6     -19.754  22.552  18.104  0.00  0.00    +0.150 HD
ATOM      4  O   GLY A   5     -22.659  23.795  17.776  0.00  0.00    -0.273 OA
ENDROOT
BRANCH   2   5
ATOM      5  CA  VAL A   6     -20.124  24.675  18.377  0.00  0.00    +0.149 C 
BRANCH   5   6
ATOM      6  C   VAL A   6     -20.360  25.509  17.120  0.00  0.00    +0.241 C 
ATOM      7  N   GLY A   7     -21.036  26.646  17.282  0.00  0.00    -0.295 N 
ATOM      8  H   GLY A   7     -21.307  26.946  18.240  0.00  0.00    +0.150 HD
ATOM      9  O   VAL A   6     -19.976  25.110  16.022  0.00  0.00    -0.273 OA
BRANCH   7  10
ATOM     10  CA  GLY A   7     -21.403  27.477  16.143  0.00  0.00    +0.176 C 
BRANCH  10  11
ATOM     11  C   GLY A   7     -22.740  27.085  15.544  0.00  0.00    +0.243 C 
ATOM     12  N   GLY A   8     -23.327  25.984  16.003  0.00  0.00    -0.295 N 
ATOM     13  H   GLY A   8     -22.850  25.348  16.674  0.00  0.00    +0.150 HD
ATOM     14  O   GLY A   7     -23.255  27.777  14.654  0.00  0.00    -0.273 OA
BRANCH  12  15
ATOM     15  CA  GLY A   8     -24.678  25.714  15.515  0.00  0.00    +0.176 C 
BRANCH  15  16
ATOM     16  C   GLY A   8     -24.735  24.514  14.582  0.00  0.00    +0.243 C 
ATOM     17  O   GLY A   8     -23.858  23.649  14.621  0.00  0.00    -0.273 OA
ATOM     18  N   PHE A   9     -25.753  24.482  13.730  0.00  0.00    -0.297 N 
ATOM     19  H   PHE A   9     -26.392  25.301  13.678  0.00  0.00    +0.150 HD
BRANCH  18  20
ATOM     20  CA  PHE A   9     -26.004  23.339  12.867  0.00  0.00    +0.153 C 
BRANCH  20  21
ATOM     21  C   PHE A   9     -25.554  23.551  11.429  0.00  0.00    +0.241 C 
ATOM     22  O   PHE A   9     -25.615  24.667  10.911  0.00  0.00    -0.273 OA
ATOM     23  N   ILE A  10     -25.124  22.460  10.792  0.00  0.00    -0.298 N 
ATOM     24  H   ILE A  10     -24.921  21.604  11.346  0.00  0.00    +0.150 HD
BRANCH  23  25
ATOM     25  CA  ILE A  10     -24.928  22.424   9.344  0.00  0.00    +0.137 C 
BRANCH  25  26
ATOM     26  C   ILE A  10     -25.706  21.257   8.742  0.00  0.00    +0.227 C 
ATOM     27  O   ILE A  10     -25.943  20.236   9.402  0.00  0.00    -0.286 OA
ENDBRANCH  25  26
BRANCH  25  28
ATOM     28  CB  ILE A  10     -23.424  22.344   8.937  0.00  0.00    +0.026 C 
ATOM     29  CG2 ILE A  10     -22.701  23.649   9.300  0.00  0.00    +0.002 C 
BRANCH  28  30
ATOM     30  CG1 ILE A  10     -22.740  21.117   9.543  0.00  0.00    +0.002 C 
ATOM     31  CD1 ILE A  10     -21.379  20.798   8.935  0.00  0.00    +0.000 C 
ENDBRANCH  28  30
ENDBRANCH  25  28
ENDBRANCH  23  25
ENDBRANCH  20  21
BRANCH  20  32
ATOM     32  CB  PHE A   9     -27.501  22.989  12.866  0.00  0.00    +0.055 C 
BRANCH  32  33
ATOM     33  CG  PHE A   9     -27.973  22.384  14.151  0.00  0.00    -0.020 A 
ATOM     34  CD2 PHE A   9     -28.241  23.187  15.258  0.00  0.00    -0.004 A 
ATOM     35  CE2 PHE A   9     -28.680  22.628  16.461  0.00  0.00    -0.000 A 
ATOM     36  CZ  PHE A   9     -28.863  21.265  16.561  0.00  0.00    -0.000 A 
ATOM     37  CE1 PHE A   9     -28.611  20.450  15.461  0.00  0.00    -0.000 A 
ATOM     38  CD1 PHE A   9     -28.174  21.015  14.255  0.00  0.00    -0.004 A 
ENDBRANCH  32  33
ENDBRANCH  20  32
ENDBRANCH  18  20
ENDBRANCH  15  16
ENDBRANCH  12  15
ENDBRANCH  10  11
ENDBRANCH   7  10
ENDBRANCH   5   6
BRANCH   5  39
ATOM     39  CB  VAL A   6     -18.673  24.776  18.864  0.00  0.00    +0.027 C 
ATOM     40  CG2 VAL A   6     -18.544  24.109  20.218  0.00  0.00    +0.002 C 
ATOM     41  CG1 VAL A   6     -18.208  26.229  18.935  0.00  0.00    +0.002 C 
ENDBRANCH   5  39
ENDBRANCH   2   5
BRANCH   1  42
ATOM     42  CA  GLY A   5     -22.011  21.526  17.426  0.00  0.00    +0.176 C 
BRANCH  42  45
ATOM     43  C   GLY A   4     -23.811  20.351  16.263  0.00  0.00    +0.243 C 
ATOM     44  O   GLY A   4     -23.431  19.219  16.627  0.00  0.00    -0.273 OA
ATOM     45  N   GLY A   5     -23.148  21.473  16.512  0.00  0.00    -0.295 N 
ATOM     46  H   GLY A   5     -23.450  22.348  16.038  0.00  0.00    +0.150 HD
BRANCH  43  47
ATOM     47  CA  GLY A   4     -25.085  20.532  15.489  0.00  0.00    +0.176 C 
BRANCH  47  49
ATOM     48  C   ILE A   3     -25.401  19.345  13.411  0.00  0.00    +0.241 C 
ATOM     49  N   GLY A   4     -25.354  19.325  14.735  0.00  0.00    -0.295 N 
ATOM     50  H   GLY A   4     -25.513  18.430  15.240  0.00  0.00    +0.150 HD
ATOM     51  O   ILE A   3     -25.203  20.368  12.744  0.00  0.00    -0.273 OA
BRANCH  48  52
ATOM     52  CA  ILE A   3     -25.764  18.031  12.737  0.00  0.00    +0.149 C 
BRANCH  52  55
ATOM     53  C   MET A   2     -27.825  17.836  11.487  0.00  0.00    +0.241 C 
ATOM     54  O   MET A   2     -28.302  17.021  12.287  0.00  0.00    -0.273 OA
ATOM     55  N   ILE A   3     -26.595  18.326  11.580  0.00  0.00    -0.297 N 
ATOM     56  H   ILE A   3     -26.221  18.927  10.818  0.00  0.00    +0.150 HD
BRANCH  53  57
ATOM     57  CA  MET A   2     -28.640  18.282  10.296  0.00  0.00    +0.149 C 
BRANCH  57  59
ATOM     58  C   LYS A   1     -28.718  16.707   8.422  0.00  0.00    +0.238 C 
ATOM     59  N   MET A   2     -29.146  17.080   9.627  0.00  0.00    -0.297 N 
ATOM     60  H   MET A   2     -29.862  16.500  10.109  0.00  0.00    +0.150 HD
ATOM     61  O   LYS A   1     -28.000  17.417   7.714  0.00  0.00    -0.274 OA
BRANCH  58  62
ATOM     62  CA  LYS A   1     -29.142  15.330   7.924  0.00  0.00    +0.145 C 
BRANCH  62  63
ATOM     63  N   LYS A   1     -29.226  15.397   6.470  0.00  0.00    -0.238 NA
ATOM     64  H   LYS A   1     -28.610  16.064   5.962  0.00  0.00    +0.142 HD
ENDBRANCH  62  63
BRANCH  62  65
ATOM     65  CB  LYS A   1     -28.124  14.270   8.348  0.00  0.00    +0.026 C 
BRANCH  65  66
ATOM     66  CG  LYS A   1     -28.135  13.899   9.822  0.00  0.00    -0.000 C 
BRANCH  66  67
ATOM     67  CD  LYS A   1     -27.031  12.886  10.105  0.00  0.00    -0.024 C 
BRANCH  67  68
ATOM     68  CE  LYS A   1     -26.888  12.602  11.581  0.00  0.00    -0.086 C 
BRANCH  68  69
ATOM     69  NZ  LYS A   1     -25.665  11.801  11.852  0.00  0.00    +0.380 N 
ATOM     70  HZ1 LYS A   1     -25.590  11.620  12.873  0.00  0.00    -0.089 HD
ATOM     71  HZ2 LYS A   1     -24.828  12.328  11.530  0.00  0.00    -0.089 HD
ATOM     72  HZ3 LYS A   1     -25.724  10.897  11.341  0.00  0.00    -0.089 HD
ENDBRANCH  68  69
ENDBRANCH  67  68
ENDBRANCH  66  67
ENDBRANCH  65  66
ENDBRANCH  62  65
ENDBRANCH  58  62
ENDBRANCH  57  59
BRANCH  57  73
ATOM     73  CB  MET A   2     -29.802  19.145  10.769  0.00  0.00    +0.041 C 
BRANCH  73  74
ATOM     74  CG  MET A   2     -30.491  19.871   9.640  0.00  0.00    +0.060 C 
BRANCH  74  75
ATOM     75  SD  MET A   2     -29.561  21.351   9.154  0.00  0.00    -0.139 S 
ATOM     76  CE  MET A   2     -30.297  22.565  10.265  0.00  0.00    +0.069 C 
ENDBRANCH  74  75
ENDBRANCH  73  74
ENDBRANCH  57  73
ENDBRANCH  53  57
ENDBRANCH  52  55
BRANCH  52  77
ATOM     77  CB  ILE A   3     -24.485  17.223  12.365  0.00  0.00    +0.027 C 
ATOM     78  CG2 ILE A   3     -24.879  15.820  11.889  0.00  0.00    +0.002 C 
BRANCH  77  79
ATOM     79  CG1 ILE A   3     -23.635  17.964  11.325  0.00  0.00    +0.002 C 
ATOM     80  CD1 ILE A   3     -22.254  17.376  11.101  0.00  0.00    +0.000 C 
ENDBRANCH  77  79
ENDBRANCH  52  77
ENDBRANCH  48  52
ENDBRANCH  47  49
ENDBRANCH  43  47
ENDBRANCH  42  45
ENDBRANCH   1  42
TORSDOF 35
REMARK  Name = ../refined-set-2016/2o4l/2o4l_pocket.pdb
REMARK  224 active torsions:
REMARK  status: ('A' for Active; 'I' for Inactive)
REMARK    1  A    between atoms: _1  and  _3
REMARK    2  A    between atoms: _3  and  _4
REMARK    3  A    between atoms: _3  and  _6
REMARK    4  A    between atoms: _6  and  _7
REMARK    5  A    between atoms: _7  and  _8
REMARK    6  A    between atoms: _8  and  _9
REMARK    7  A    between atoms: _18  and  _20
REMARK    8  A    between atoms: _20  and  _21
REMARK    9  A    between atoms: _20  and  _23
REMARK   10  A    between atoms: _23  and  _24
REMARK   11  A    between atoms: _27  and  _29
REMARK   12  A    between atoms: _29  and  _30
REMARK   13  A    between atoms: _29  and  _32
REMARK   14  A    between atoms: _32  and  _33
REMARK   15  A    between atoms: _36  and  _38
REMARK   16  A    between atoms: _38  and  _39
REMARK   17  A    between atoms: _38  and  _41
REMARK   18  A    between atoms: _41  and  _42
REMARK   19  A    between atoms: _45  and  _47
REMARK   20  A    between atoms: _47  and  _48
REMARK   21  A    between atoms: _47  and  _50
REMARK   22  A    between atoms: _50  and  _51
REMARK   23  A    between atoms: _54  and  _56
REMARK   24  A    between atoms: _56  and  _57
REMARK   25  A    between atoms: _56  and  _59
REMARK   26  A    between atoms: _59  and  _60
REMARK   27  A    between atoms: _63  and  _65
REMARK   28  A    between atoms: _65  and  _66
REMARK   29  A    between atoms: _68  and  _70
REMARK   30  A    between atoms: _70  and  _71
REMARK   31  A    between atoms: _74  and  _76
REMARK   32  A    between atoms: _76  and  _77
REMARK   33  A    between atoms: _76  and  _79
REMARK   34  A    between atoms: _79  and  _80
REMARK   35  A    between atoms: _83  and  _85
REMARK   36  A    between atoms: _85  and  _86
REMARK   37  A    between atoms: _85  and  _88
REMARK   38  A    between atoms: _88  and  _89
REMARK   39  A    between atoms: _92  and  _94
REMARK   40  A    between atoms: _94  and  _95
REMARK   41  A    between atoms: _94  and  _97
REMARK   42  A    between atoms: _97  and  _98
REMARK   43  A    between atoms: _101  and  _103
REMARK   44  A    between atoms: _103  and  _104
REMARK   45  A    between atoms: _103  and  _106
REMARK   46  A    between atoms: _109  and  _111
REMARK   47  A    between atoms: _111  and  _112
REMARK   48  A    between atoms: _111  and  _114
REMARK   49  A    between atoms: _114  and  _115
REMARK   50  A    between atoms: _115  and  _116
REMARK   51  A    between atoms: _116  and  _117
REMARK   52  A    between atoms: _117  and  _118
REMARK   53  A    between atoms: _122  and  _124
REMARK   54  A    between atoms: _124  and  _125
REMARK   55  A    between atoms: _124  and  _127
REMARK   56  A    between atoms: _127  and  _128
REMARK   57  A    between atoms: _128  and  _129
REMARK   58  A    between atoms: _131  and  _133
REMARK   59  A    between atoms: _133  and  _134
REMARK   60  A    between atoms: _133  and  _136
REMARK   61  A    between atoms: _136  and  _137
REMARK   62  A    between atoms: _140  and  _142
REMARK   63  A    between atoms: _142  and  _143
REMARK   64  A    between atoms: _145  and  _147
REMARK   65  A    between atoms: _147  and  _148
REMARK   66  A    between atoms: _150  and  _152
REMARK   67  A    between atoms: _152  and  _153
REMARK   68  A    between atoms: _152  and  _155
REMARK   69  A    between atoms: _158  and  _160
REMARK   70  A    between atoms: _160  and  _161
REMARK   71  A    between atoms: _163  and  _165
REMARK   72  A    between atoms: _165  and  _166
REMARK   73  A    between atoms: _168  and  _170
REMARK   74  A    between atoms: _170  and  _171
REMARK   75  A    between atoms: _170  and  _173
REMARK   76  A    between atoms: _173  and  _174
REMARK   77  A    between atoms: _180  and  _182
REMARK   78  A    between atoms: _182  and  _183
REMARK   79  A    between atoms: _182  and  _185
REMARK   80  A    between atoms: _185  and  _186
REMARK   81  A    between atoms: _189  and  _191
REMARK   82  A    between atoms: _191  and  _192
REMARK   83  A    between atoms: _191  and  _194
REMARK   84  A    between atoms: _194  and  _195
REMARK   85  A    between atoms: _198  and  _200
REMARK   86  A    between atoms: _200  and  _201
REMARK   87  A    between atoms: _200  and  _203
REMARK   88  A    between atoms: _203  and  _204
REMARK   89  A    between atoms: _208  and  _209
REMARK   90  A    between atoms: _214  and  _216
REMARK   91  A    between atoms: _216  and  _217
REMARK   92  A    between atoms: _216  and  _219
REMARK   93  A    between atoms: _222  and  _224
REMARK   94  A    between atoms: _224  and  _225
REMARK   95  A    between atoms: _224  and  _227
REMARK   96  A    between atoms: _227  and  _228
REMARK   97  A    between atoms: _233  and  _235
REMARK   98  A    between atoms: _235  and  _236
REMARK   99  A    between atoms: _235  and  _238
REMARK  100  A    between atoms: _238  and  _239
REMARK  101  A    between atoms: _242  and  _244
REMARK  102  A    between atoms: _244  and  _245
REMARK  103  A    between atoms: _244  and  _247
REMARK  104  A    between atoms: _247  and  _248
REMARK  105  A    between atoms: _251  and  _253
REMARK  106  A    between atoms: _253  and  _254
REMARK  107  A    between atoms: _256  and  _258
REMARK  108  A    between atoms: _258  and  _259
REMARK  109  A    between atoms: _258  and  _261
REMARK  110  A    between atoms: _261  and  _262
REMARK  111  A    between atoms: _262  and  _263
REMARK  112  A    between atoms: _263  and  _264
REMARK  113  A    between atoms: _273  and  _275
REMARK  114  A    between atoms: _275  and  _276
REMARK  115  A    between atoms: _275  and  _278
REMARK  116  A    between atoms: _278  and  _279
REMARK  117  A    between atoms: _284  and  _286
REMARK  118  A    between atoms: _286  and  _287
REMARK  119  A    between atoms: _286  and  _289
REMARK  120  A    between atoms: _289  and  _290
REMARK  121  A    between atoms: _290  and  _291
REMARK  122  A    between atoms: _291  and  _292
REMARK  123  A    between atoms: _302  and  _303
REMARK  124  A    between atoms: _308  and  _310
REMARK  125  A    between atoms: _310  and  _311
REMARK  126  A    between atoms: _310  and  _313
REMARK  127  A    between atoms: _313  and  _314
REMARK  128  A    between atoms: _317  and  _319
REMARK  129  A    between atoms: _319  and  _320
REMARK  130  A    between atoms: _319  and  _322
REMARK  131  A    between atoms: _322  and  _323
REMARK  132  A    between atoms: _326  and  _328
REMARK  133  A    between atoms: _328  and  _329
REMARK  134  A    between atoms: _328  and  _331
REMARK  135  A    between atoms: _331  and  _332
REMARK  136  A    between atoms: _335  and  _337
REMARK  137  A    between atoms: _337  and  _338
REMARK  138  A    between atoms: _337  and  _340
REMARK  139  A    between atoms: _340  and  _341
REMARK  140  A    between atoms: _344  and  _346
REMARK  141  A    between atoms: _346  and  _347
REMARK  142  A    between atoms: _346  and  _349
REMARK  143  A    between atoms: _349  and  _350
REMARK  144  A    between atoms: _353  and  _355
REMARK  145  A    between atoms: _355  and  _356
REMARK  146  A    between atoms: _358  and  _360
REMARK  147  A    between atoms: _360  and  _361
REMARK  148  A    between atoms: _364  and  _366
REMARK  149  A    between atoms: _366  and  _367
REMARK  150  A    between atoms: _366  and  _369
REMARK  151  A    between atoms: _369  and  _370
REMARK  152  A    between atoms: _373  and  _375
REMARK  153  A    between atoms: _375  and  _376
REMARK  154  A    between atoms: _375  and  _378
REMARK  155  A    between atoms: _378  and  _379
REMARK  156  A    between atoms: _382  and  _384
REMARK  157  A    between atoms: _384  and  _385
REMARK  158  A    between atoms: _384  and  _387
REMARK  159  A    between atoms: _387  and  _388
REMARK  160  A    between atoms: _391  and  _393
REMARK  161  A    between atoms: _393  and  _394
REMARK  162  A    between atoms: _393  and  _396
REMARK  163  A    between atoms: _399  and  _401
REMARK  164  A    between atoms: _401  and  _402
REMARK  165  A    between atoms: _401  and  _404
REMARK  166  A    between atoms: _404  and  _405
REMARK  167  A    between atoms: _408  and  _410
REMARK  168  A    between atoms: _410  and  _411
REMARK  169  A    between atoms: _410  and  _413
REMARK  170  A    between atoms: _413  and  _414
REMARK  171  A    between atoms: _417  and  _419
REMARK  172  A    between atoms: _419  and  _420
REMARK  173  A    between atoms: _422  and  _424
REMARK  174  A    between atoms: _424  and  _425
REMARK  175  A    between atoms: _427  and  _429
REMARK  176  A    between atoms: _429  and  _430
REMARK  177  A    between atoms: _429  and  _432
REMARK  178  A    between atoms: _435  and  _437
REMARK  179  A    between atoms: _437  and  _438
REMARK  180  A    between atoms: _440  and  _442
REMARK  181  A    between atoms: _442  and  _443
REMARK  182  A    between atoms: _445  and  _447
REMARK  183  A    between atoms: _447  and  _448
REMARK  184  A    between atoms: _447  and  _450
REMARK  185  A    between atoms: _450  and  _451
REMARK  186  A    between atoms: _457  and  _459
REMARK  187  A    between atoms: _459  and  _460
REMARK  188  A    between atoms: _459  and  _462
REMARK  189  A    between atoms: _462  and  _463
REMARK  190  A    between atoms: _466  and  _468
REMARK  191  A    between atoms: _468  and  _469
REMARK  192  A    between atoms: _468  and  _471
REMARK  193  A    between atoms: _474  and  _476
REMARK  194  A    between atoms: _476  and  _477
REMARK  195  A    between atoms: _476  and  _479
REMARK  196  A    between atoms: _479  and  _480
REMARK  197  A    between atoms: _483  and  _485
REMARK  198  A    between atoms: _485  and  _486
REMARK  199  A    between atoms: _485  and  _488
REMARK  200  A    between atoms: _488  and  _489
REMARK  201  A    between atoms: _493  and  _494
REMARK  202  A    between atoms: _499  and  _501
REMARK  203  A    between atoms: _501  and  _502
REMARK  204  A    between atoms: _501  and  _504
REMARK  205  A    between atoms: _507  and  _509
REMARK  206  A    between atoms: _509  and  _510
REMARK  207  A    between atoms: _509  and  _512
REMARK  208  A    between atoms: _512  and  _513
REMARK  209  A    between atoms: _518  and  _520
REMARK  210  A    between atoms: _520  and  _521
REMARK  211  A    between atoms: _520  and  _523
REMARK  212  A    between atoms: _523  and  _524
REMARK  213  A    between atoms: _527  and  _529
REMARK  214  A    between atoms: _529  and  _530
REMARK  215  A    between atoms: _529  and  _532
REMARK  216  A    between atoms: _532  and  _533
REMARK  217  A    between atoms: _536  and  _538
REMARK  218  A    between atoms: _538  and  _539
REMARK  219  A    between atoms: _541  and  _543
REMARK  220  A    between atoms: _543  and  _544
REMARK  221  A    between atoms: _543  and  _546
REMARK  222  A    between atoms: _546  and  _547
REMARK  223  A    between atoms: _547  and  _548
REMARK  224  A    between atoms: _548  and  _549
REMARK                            x       y       z     vdW  Elec       q    Type
REMARK                         _______ _______ _______ _____ _____    ______ ____
ROOT
ATOM      1  CA  LEU A   1     -21.373  12.629   6.542  0.00  0.00    +0.133 C 
ENDROOT
BRANCH   1   2
ATOM      2  N   LEU A   1     -20.593  11.458   6.901  0.00  0.00    -0.239 NA
ATOM      3  H   LEU A   1     -19.942  11.515   7.710  0.00  0.00    +0.142 HD
ENDBRANCH   1   2
BRANCH   1   4
ATOM      4  C   LEU A   1     -20.485  13.552   5.725  0.00  0.00    +0.224 C 
ATOM      5  O   LEU A   1     -19.272  13.618   5.965  0.00  0.00    -0.287 OA
ENDBRANCH   1   4
BRANCH   1   6
ATOM      6  CB  LEU A   1     -21.831  13.361   7.804  0.00  0.00    +0.025 C 
BRANCH   6   7
ATOM      7  CG  LEU A   1     -22.478  12.480   8.881  0.00  0.00    +0.002 C 
ATOM      8  CD2 LEU A   1     -22.868  13.322  10.101  0.00  0.00    +0.000 C 
ATOM      9  CD1 LEU A   1     -23.677  11.722   8.353  0.00  0.00    +0.000 C 
ENDBRANCH   6   7
ENDBRANCH   1   6
TORSDOF 4
REMARK  Name = ../refined-set-2016/2o4l/2o4l_pocket.pdb
REMARK  224 active torsions:
REMARK  status: ('A' for Active; 'I' for Inactive)
REMARK    1  A    between atoms: _1  and  _3
REMARK    2  A    between atoms: _3  and  _4
REMARK    3  A    between atoms: _3  and  _6
REMARK    4  A    between atoms: _6  and  _7
REMARK    5  A    between atoms: _7  and  _8
REMARK    6  A    between atoms: _8  and  _9
REMARK    7  A    between atoms: _18  and  _20
REMARK    8  A    between atoms: _20  and  _21
REMARK    9  A    between atoms: _20  and  _23
REMARK   10  A    between atoms: _23  and  _24
REMARK   11  A    between atoms: _27  and  _29
REMARK   12  A    between atoms: _29  and  _30
REMARK   13  A    between atoms: _29  and  _32
REMARK   14  A    between atoms: _32  and  _33
REMARK   15  A    between atoms: _36  and  _38
REMARK   16  A    between atoms: _38  and  _39
REMARK   17  A    between atoms: _38  and  _41
REMARK   18  A    between atoms: _41  and  _42
REMARK   19  A    between atoms: _45  and  _47
REMARK   20  A    between atoms: _47  and  _48
REMARK   21  A    between atoms: _47  and  _50
REMARK   22  A    between atoms: _50  and  _51
REMARK   23  A    between atoms: _54  and  _56
REMARK   24  A    between atoms: _56  and  _57
REMARK   25  A    between atoms: _56  and  _59
REMARK   26  A    between atoms: _59  and  _60
REMARK   27  A    between atoms: _63  and  _65
REMARK   28  A    between atoms: _65  and  _66
REMARK   29  A    between atoms: _68  and  _70
REMARK   30  A    between atoms: _70  and  _71
REMARK   31  A    between atoms: _74  and  _76
REMARK   32  A    between atoms: _76  and  _77
REMARK   33  A    between atoms: _76  and  _79
REMARK   34  A    between atoms: _79  and  _80
REMARK   35  A    between atoms: _83  and  _85
REMARK   36  A    between atoms: _85  and  _86
REMARK   37  A    between atoms: _85  and  _88
REMARK   38  A    between atoms: _88  and  _89
REMARK   39  A    between atoms: _92  and  _94
REMARK   40  A    between atoms: _94  and  _95
REMARK   41  A    between atoms: _94  and  _97
REMARK   42  A    between atoms: _97  and  _98
REMARK   43  A    between atoms: _101  and  _103
REMARK   44  A    between atoms: _103  and  _104
REMARK   45  A    between atoms: _103  and  _106
REMARK   46  A    between atoms: _109  and  _111
REMARK   47  A    between atoms: _111  and  _112
REMARK   48  A    between atoms: _111  and  _114
REMARK   49  A    between atoms: _114  and  _115
REMARK   50  A    between atoms: _115  and  _116
REMARK   51  A    between atoms: _116  and  _117
REMARK   52  A    between atoms: _117  and  _118
REMARK   53  A    between atoms: _122  and  _124
REMARK   54  A    between atoms: _124  and  _125
REMARK   55  A    between atoms: _124  and  _127
REMARK   56  A    between atoms: _127  and  _128
REMARK   57  A    between atoms: _128  and  _129
REMARK   58  A    between atoms: _131  and  _133
REMARK   59  A    between atoms: _133  and  _134
REMARK   60  A    between atoms: _133  and  _136
REMARK   61  A    between atoms: _136  and  _137
REMARK   62  A    between atoms: _140  and  _142
REMARK   63  A    between atoms: _142  and  _143
REMARK   64  A    between atoms: _145  and  _147
REMARK   65  A    between atoms: _147  and  _148
REMARK   66  A    between atoms: _150  and  _152
REMARK   67  A    between atoms: _152  and  _153
REMARK   68  A    between atoms: _152  and  _155
REMARK   69  A    between atoms: _158  and  _160
REMARK   70  A    between atoms: _160  and  _161
REMARK   71  A    between atoms: _163  and  _165
REMARK   72  A    between atoms: _165  and  _166
REMARK   73  A    between atoms: _168  and  _170
REMARK   74  A    between atoms: _170  and  _171
REMARK   75  A    between atoms: _170  and  _173
REMARK   76  A    between atoms: _173  and  _174
REMARK   77  A    between atoms: _180  and  _182
REMARK   78  A    between atoms: _182  and  _183
REMARK   79  A    between atoms: _182  and  _185
REMARK   80  A    between atoms: _185  and  _186
REMARK   81  A    between atoms: _189  and  _191
REMARK   82  A    between atoms: _191  and  _192
REMARK   83  A    between atoms: _191  and  _194
REMARK   84  A    between atoms: _194  and  _195
REMARK   85  A    between atoms: _198  and  _200
REMARK   86  A    between atoms: _200  and  _201
REMARK   87  A    between atoms: _200  and  _203
REMARK   88  A    between atoms: _203  and  _204
REMARK   89  A    between atoms: _208  and  _209
REMARK   90  A    between atoms: _214  and  _216
REMARK   91  A    between atoms: _216  and  _217
REMARK   92  A    between atoms: _216  and  _219
REMARK   93  A    between atoms: _222  and  _224
REMARK   94  A    between atoms: _224  and  _225
REMARK   95  A    between atoms: _224  and  _227
REMARK   96  A    between atoms: _227  and  _228
REMARK   97  A    between atoms: _233  and  _235
REMARK   98  A    between atoms: _235  and  _236
REMARK   99  A    between atoms: _235  and  _238
REMARK  100  A    between atoms: _238  and  _239
REMARK  101  A    between atoms: _242  and  _244
REMARK  102  A    between atoms: _244  and  _245
REMARK  103  A    between atoms: _244  and  _247
REMARK  104  A    between atoms: _247  and  _248
REMARK  105  A    between atoms: _251  and  _253
REMARK  106  A    between atoms: _253  and  _254
REMARK  107  A    between atoms: _256  and  _258
REMARK  108  A    between atoms: _258  and  _259
REMARK  109  A    between atoms: _258  and  _261
REMARK  110  A    between atoms: _261  and  _262
REMARK  111  A    between atoms: _262  and  _263
REMARK  112  A    between atoms: _263  and  _264
REMARK  113  A    between atoms: _273  and  _275
REMARK  114  A    between atoms: _275  and  _276
REMARK  115  A    between atoms: _275  and  _278
REMARK  116  A    between atoms: _278  and  _279
REMARK  117  A    between atoms: _284  and  _286
REMARK  118  A    between atoms: _286  and  _287
REMARK  119  A    between atoms: _286  and  _289
REMARK  120  A    between atoms: _289  and  _290
REMARK  121  A    between atoms: _290  and  _291
REMARK  122  A    between atoms: _291  and  _292
REMARK  123  A    between atoms: _302  and  _303
REMARK  124  A    between atoms: _308  and  _310
REMARK  125  A    between atoms: _310  and  _311
REMARK  126  A    between atoms: _310  and  _313
REMARK  127  A    between atoms: _313  and  _314
REMARK  128  A    between atoms: _317  and  _319
REMARK  129  A    between atoms: _319  and  _320
REMARK  130  A    between atoms: _319  and  _322
REMARK  131  A    between atoms: _322  and  _323
REMARK  132  A    between atoms: _326  and  _328
REMARK  133  A    between atoms: _328  and  _329
REMARK  134  A    between atoms: _328  and  _331
REMARK  135  A    between atoms: _331  and  _332
REMARK  136  A    between atoms: _335  and  _337
REMARK  137  A    between atoms: _337  and  _338
REMARK  138  A    between atoms: _337  and  _340
REMARK  139  A    between atoms: _340  and  _341
REMARK  140  A    between atoms: _344  and  _346
REMARK  141  A    between atoms: _346  and  _347
REMARK  142  A    between atoms: _346  and  _349
REMARK  143  A    between atoms: _349  and  _350
REMARK  144  A    between atoms: _353  and  _355
REMARK  145  A    between atoms: _355  and  _356
REMARK  146  A    between atoms: _358  and  _360
REMARK  147  A    between atoms: _360  and  _361
REMARK  148  A    between atoms: _364  and  _366
REMARK  149  A    between atoms: _366  and  _367
REMARK  150  A    between atoms: _366  and  _369
REMARK  151  A    between atoms: _369  and  _370
REMARK  152  A    between atoms: _373  and  _375
REMARK  153  A    between atoms: _375  and  _376
REMARK  154  A    between atoms: _375  and  _378
REMARK  155  A    between atoms: _378  and  _379
REMARK  156  A    between atoms: _382  and  _384
REMARK  157  A    between atoms: _384  and  _385
REMARK  158  A    between atoms: _384  and  _387
REMARK  159  A    between atoms: _387  and  _388
REMARK  160  A    between atoms: _391  and  _393
REMARK  161  A    between atoms: _393  and  _394
REMARK  162  A    between atoms: _393  and  _396
REMARK  163  A    between atoms: _399  and  _401
REMARK  164  A    between atoms: _401  and  _402
REMARK  165  A    between atoms: _401  and  _404
REMARK  166  A    between atoms: _404  and  _405
REMARK  167  A    between atoms: _408  and  _410
REMARK  168  A    between atoms: _410  and  _411
REMARK  169  A    between atoms: _410  and  _413
REMARK  170  A    between atoms: _413  and  _414
REMARK  171  A    between atoms: _417  and  _419
REMARK  172  A    between atoms: _419  and  _420
REMARK  173  A    between atoms: _422  and  _424
REMARK  174  A    between atoms: _424  and  _425
REMARK  175  A    between atoms: _427  and  _429
REMARK  176  A    between atoms: _429  and  _430
REMARK  177  A    between atoms: _429  and  _432
REMARK  178  A    between atoms: _435  and  _437
REMARK  179  A    between atoms: _437  and  _438
REMARK  180  A    between atoms: _440  and  _442
REMARK  181  A    between atoms: _442  and  _443
REMARK  182  A    between atoms: _445  and  _447
REMARK  183  A    between atoms: _447  and  _448
REMARK  184  A    between atoms: _447  and  _450
REMARK  185  A    between atoms: _450  and  _451
REMARK  186  A    between atoms: _457  and  _459
REMARK  187  A    between atoms: _459  and  _460
REMARK  188  A    between atoms: _459  and  _462
REMARK  189  A    between atoms: _462  and  _463
REMARK  190  A    between atoms: _466  and  _468
REMARK  191  A    between atoms: _468  and  _469
REMARK  192  A    between atoms: _468  and  _471
REMARK  193  A    between atoms: _474  and  _476
REMARK  194  A    between atoms: _476  and  _477
REMARK  195  A    between atoms: _476  and  _479
REMARK  196  A    between atoms: _479  and  _480
REMARK  197  A    between atoms: _483  and  _485
REMARK  198  A    between atoms: _485  and  _486
REMARK  199  A    between atoms: _485  and  _488
REMARK  200  A    between atoms: _488  and  _489
REMARK  201  A    between atoms: _493  and  _494
REMARK  202  A    between atoms: _499  and  _501
REMARK  203  A    between atoms: _501  and  _502
REMARK  204  A    between atoms: _501  and  _504
REMARK  205  A    between atoms: _507  and  _509
REMARK  206  A    between atoms: _509  and  _510
REMARK  207  A    between atoms: _509  and  _512
REMARK  208  A    between atoms: _512  and  _513
REMARK  209  A    between atoms: _518  and  _520
REMARK  210  A    between atoms: _520  and  _521
REMARK  211  A    between atoms: _520  and  _523
REMARK  212  A    between atoms: _523  and  _524
REMARK  213  A    between atoms: _527  and  _529
REMARK  214  A    between atoms: _529  and  _530
REMARK  215  A    between atoms: _529  and  _532
REMARK  216  A    between atoms: _532  and  _533
REMARK  217  A    between atoms: _536  and  _538
REMARK  218  A    between atoms: _538  and  _539
REMARK  219  A    between atoms: _541  and  _543
REMARK  220  A    between atoms: _543  and  _544
REMARK  221  A    between atoms: _543  and  _546
REMARK  222  A    between atoms: _546  and  _547
REMARK  223  A    between atoms: _547  and  _548
REMARK  224  A    between atoms: _548  and  _549
REMARK                            x       y       z     vdW  Elec       q    Type
REMARK                         _______ _______ _______ _____ _____    ______ ____
ROOT
ATOM      1  C   ILE A   5     -13.729  13.632  11.379  0.00  0.00    +0.241 C 
ATOM      2  N   ILE A   6     -12.871  12.853  12.038  0.00  0.00    -0.297 N 
ATOM      3  H   ILE A   6     -11.956  13.251  12.332  0.00  0.00    +0.150 HD
ATOM      4  O   ILE A   5     -14.749  13.208  10.818  0.00  0.00    -0.273 OA
ENDROOT
BRANCH   2   5
ATOM      5  CA  ILE A   6     -13.170  11.458  12.362  0.00  0.00    +0.149 C 
BRANCH   5   6
ATOM      6  C   ILE A   6     -13.815  11.408  13.742  0.00  0.00    +0.241 C 
ATOM      7  O   ILE A   6     -13.194  11.805  14.756  0.00  0.00    -0.273 OA
ATOM      8  N   GLY A   7     -15.066  10.943  13.793  0.00  0.00    -0.295 N 
ATOM      9  H   GLY A   7     -15.512  10.608  12.915  0.00  0.00    +0.150 HD
BRANCH   8  10
ATOM     10  CA  GLY A   7     -15.829  10.888  15.034  0.00  0.00    +0.176 C 
BRANCH  10  11
ATOM     11  C   GLY A   7     -15.878   9.507  15.647  0.00  0.00    +0.243 C 
ATOM     12  N   ARG A   8     -16.600   9.404  16.757  0.00  0.00    -0.297 N 
ATOM     13  H   ARG A   8     -17.193  10.202  17.063  0.00  0.00    +0.150 HD
ATOM     14  O   GLY A   7     -15.280   8.554  15.132  0.00  0.00    -0.273 OA
BRANCH  12  15
ATOM     15  CA  ARG A   8     -16.567   8.181  17.549  0.00  0.00    +0.149 C 
BRANCH  15  16
ATOM     16  C   ARG A   8     -17.076   6.974  16.805  0.00  0.00    +0.241 C 
ATOM     17  O   ARG A   8     -16.628   5.867  17.070  0.00  0.00    -0.273 OA
ATOM     18  N   ASN A   9     -17.992   7.178  15.860  0.00  0.00    -0.298 N 
ATOM     19  H   ASN A   9     -18.312   8.145  15.651  0.00  0.00    +0.150 HD
BRANCH  18  20
ATOM     20  CA  ASN A   9     -18.550   6.054  15.116  0.00  0.00    +0.146 C 
BRANCH  20  21
ATOM     21  C   ASN A   9     -17.469   5.243  14.394  0.00  0.00    +0.227 C 
ATOM     22  O   ASN A   9     -17.646   4.044  14.150  0.00  0.00    -0.286 OA
ENDBRANCH  20  21
BRANCH  20  23
ATOM     23  CB  ASN A   9     -19.645   6.504  14.141  0.00  0.00    +0.112 C 
BRANCH  23  24
ATOM     24  CG  ASN A   9     -19.091   7.186  12.918  0.00  0.00    +0.222 C 
ATOM     25  OD1 ASN A   9     -18.339   8.170  13.013  0.00  0.00    -0.275 OA
ATOM     26  ND2 ASN A   9     -19.429   6.646  11.748  0.00  0.00    -0.329 N 
ATOM     27 HD21 ASN A   9     -20.062   5.822  11.719  0.00  0.00    +0.145 HD
ATOM     28 HD22 ASN A   9     -19.059   7.049  10.863  0.00  0.00    +0.145 HD
ENDBRANCH  23  24
ENDBRANCH  20  23
ENDBRANCH  18  20
ENDBRANCH  15  16
BRANCH  15  29
ATOM     29  CB  ARG A   8     -17.360   8.351  18.835  0.00  0.00    +0.033 C 
BRANCH  29  30
ATOM     30  CG  ARG A   8     -16.768   9.355  19.815  0.00  0.00    +0.045 C 
BRANCH  30  31
ATOM     31  CD  ARG A   8     -17.508   9.370  21.161  0.00  0.00    +0.174 C 
BRANCH  31  32
ATOM     32  NE  ARG A   8     -18.905   9.778  21.005  0.00  0.00    -0.265 N 
ATOM     33  CZ  ARG A   8     -19.953   8.964  20.951  0.00  0.00    +0.342 C 
ATOM     34  NH2 ARG A   8     -19.817   7.648  21.108  0.00  0.00    -0.292 N 
ATOM     35 HH21 ARG A   8     -18.876   7.239  21.277  0.00  0.00    +0.255 HD
ATOM     36 HH22 ARG A   8     -20.652   7.030  21.062  0.00  0.00    +0.255 HD
ATOM     37  NH1 ARG A   8     -21.157   9.479  20.753  0.00  0.00    -0.292 N 
ATOM     38 HH11 ARG A   8     -21.988   8.856  20.708  0.00  0.00    +0.255 HD
ATOM     39 HH12 ARG A   8     -21.271  10.507  20.642  0.00  0.00    +0.255 HD
ATOM     40  HE  ARG A   8     -19.094  10.798  20.930  0.00  0.00    +0.259 HD
ENDBRANCH  31  32
ENDBRANCH  30  31
ENDBRANCH  29  30
ENDBRANCH  15  29
ENDBRANCH  12  15
ENDBRANCH  10  11
ENDBRANCH   8  10
ENDBRANCH   5   6
BRANCH   5  41
ATOM     41  CB  ILE A   6     -11.903  10.561  12.341  0.00  0.00    +0.027 C 
ATOM     42  CG2 ILE A   6     -12.273   9.094  12.597  0.00  0.00    +0.002 C 
BRANCH  41  43
ATOM     43  CG1 ILE A   6     -11.130  10.712  11.020  0.00  0.00    +0.002 C 
ATOM     44  CD1 ILE A   6     -11.976  10.505   9.741  0.00  0.00    +0.000 C 
ENDBRANCH  41  43
ENDBRANCH   5  41
ENDBRANCH   2   5
BRANCH   1  45
ATOM     45  CA  ILE A   5     -13.401  15.118  11.346  0.00  0.00    +0.149 C 
BRANCH  45  48
ATOM     46  C   ASN A   4     -12.249  16.198   9.487  0.00  0.00    +0.241 C 
ATOM     47  O   ASN A   4     -11.193  16.330  10.120  0.00  0.00    -0.273 OA
ATOM     48  N   ILE A   5     -13.316  15.568   9.966  0.00  0.00    -0.297 N 
ATOM     49  H   ILE A   5     -14.120  15.390   9.331  0.00  0.00    +0.150 HD
BRANCH  46  50
ATOM     50  CA  ASN A   4     -12.359  16.741   8.066  0.00  0.00    +0.158 C 
BRANCH  50  53
ATOM     51  C   VAL A   3     -12.606  19.090   8.654  0.00  0.00    +0.241 C 
ATOM     52  O   VAL A   3     -13.722  18.900   9.102  0.00  0.00    -0.273 OA
ATOM     53  N   ASN A   4     -11.902  18.128   8.055  0.00  0.00    -0.297 N 
ATOM     54  H   ASN A   4     -11.013  18.370   7.572  0.00  0.00    +0.150 HD
BRANCH  51  55
ATOM     55  CA  VAL A   3     -11.987  20.495   8.743  0.00  0.00    +0.149 C 
BRANCH  55  57
ATOM     56  C   PRO A   2     -12.993  22.689   8.290  0.00  0.00    +0.241 C 
ATOM     57  N   VAL A   3     -13.092  21.452   8.782  0.00  0.00    -0.297 N 
ATOM     58  H   VAL A   3     -13.992  21.157   9.211  0.00  0.00    +0.150 HD
ATOM     59  O   PRO A   2     -11.965  23.130   7.768  0.00  0.00    -0.273 OA
BRANCH  56  65
ATOM     60  C   THR A   1     -16.034  22.082   7.669  0.00  0.00    +0.244 C 
ATOM     61  N   PRO A   2     -15.486  22.842   8.648  0.00  0.00    -0.272 N 
ATOM     62  CD  PRO A   2     -15.981  23.079  10.017  0.00  0.00    +0.094 C 
ATOM     63  CG  PRO A   2     -14.843  23.820  10.665  0.00  0.00    +0.024 C 
ATOM     64  CB  PRO A   2     -14.139  24.530   9.595  0.00  0.00    +0.031 C 
ATOM     65  CA  PRO A   2     -14.237  23.583   8.391  0.00  0.00    +0.152 C 
ATOM     66  O   THR A   1     -15.530  21.963   6.551  0.00  0.00    -0.273 OA
BRANCH  60  67
ATOM     67  CA  THR A   1     -17.341  21.349   7.978  0.00  0.00    +0.172 C 
BRANCH  67  68
ATOM     68  N   THR A   1     -18.171  21.359   6.787  0.00  0.00    -0.236 NA
ATOM     69  H   THR A   1     -18.261  20.486   6.228  0.00  0.00    +0.142 HD
ENDBRANCH  67  68
BRANCH  67  70
ATOM     70  CB  THR A   1     -17.060  19.908   8.453  0.00  0.00    +0.135 C 
ATOM     71  CG2 THR A   1     -16.482  19.027   7.312  0.00  0.00    +0.034 C 
BRANCH  70  72
ATOM     72  OG1 THR A   1     -16.166  19.939   9.573  0.00  0.00    -0.383 OA
ATOM     73  HG1 THR A   1     -15.316  20.370   9.304  0.00  0.00    +0.210 HD
ENDBRANCH  70  72
ENDBRANCH  67  70
ENDBRANCH  60  67
ENDBRANCH  56  65
ENDBRANCH  55  57
BRANCH  55  74
ATOM     74  CB  VAL A   3     -11.060  20.626   9.994  0.00  0.00    +0.027 C 
ATOM     75  CG2 VAL A   3     -10.132  19.431  10.145  0.00  0.00    +0.002 C 
ATOM     76  CG1 VAL A   3     -10.236  21.899   9.927  0.00  0.00    +0.002 C 
ENDBRANCH  55  74
ENDBRANCH  51  55
ENDBRANCH  50  53
BRANCH  50  77
ATOM     77  CB  ASN A   4     -11.508  15.859   7.146  0.00  0.00    +0.114 C 
BRANCH  77  78
ATOM     78  CG  ASN A   4     -11.580  16.257   5.691  0.00  0.00    +0.222 C 
ATOM     79  OD1 ASN A   4     -12.645  16.582   5.177  0.00  0.00    -0.275 OA
ATOM     80  ND2 ASN A   4     -10.442  16.194   5.005  0.00  0.00    -0.329 N 
ATOM     81 HD21 ASN A   4      -9.562  15.913   5.483  0.00  0.00    +0.145 HD
ATOM     82 HD22 ASN A   4     -10.432  16.425   3.991  0.00  0.00    +0.145 HD
ENDBRANCH  77  78
ENDBRANCH  50  77
ENDBRANCH  46  50
ENDBRANCH  45  48
BRANCH  45  83
ATOM     83  CB  ILE A   5     -14.484  15.912  12.097  0.00  0.00    +0.027 C 
ATOM     84  CG2 ILE A   5     -14.778  15.269  13.452  0.00  0.00    +0.002 C 
BRANCH  83  85
ATOM     85  CG1 ILE A   5     -14.036  17.366  12.278  0.00  0.00    +0.002 C 
ATOM     86  CD1 ILE A   5     -15.127  18.284  12.756  0.00  0.00    +0.000 C 
ENDBRANCH  83  85
ENDBRANCH  45  83
ENDBRANCH   1  45
TORSDOF 32
REMARK  Name = ../refined-set-2016/2o4l/2o4l_pocket.pdb
REMARK  224 active torsions:
REMARK  status: ('A' for Active; 'I' for Inactive)
REMARK    1  A    between atoms: _1  and  _3
REMARK    2  A    between atoms: _3  and  _4
REMARK    3  A    between atoms: _3  and  _6
REMARK    4  A    between atoms: _6  and  _7
REMARK    5  A    between atoms: _7  and  _8
REMARK    6  A    between atoms: _8  and  _9
REMARK    7  A    between atoms: _18  and  _20
REMARK    8  A    between atoms: _20  and  _21
REMARK    9  A    between atoms: _20  and  _23
REMARK   10  A    between atoms: _23  and  _24
REMARK   11  A    between atoms: _27  and  _29
REMARK   12  A    between atoms: _29  and  _30
REMARK   13  A    between atoms: _29  and  _32
REMARK   14  A    between atoms: _32  and  _33
REMARK   15  A    between atoms: _36  and  _38
REMARK   16  A    between atoms: _38  and  _39
REMARK   17  A    between atoms: _38  and  _41
REMARK   18  A    between atoms: _41  and  _42
REMARK   19  A    between atoms: _45  and  _47
REMARK   20  A    between atoms: _47  and  _48
REMARK   21  A    between atoms: _47  and  _50
REMARK   22  A    between atoms: _50  and  _51
REMARK   23  A    between atoms: _54  and  _56
REMARK   24  A    between atoms: _56  and  _57
REMARK   25  A    between atoms: _56  and  _59
REMARK   26  A    between atoms: _59  and  _60
REMARK   27  A    between atoms: _63  and  _65
REMARK   28  A    between atoms: _65  and  _66
REMARK   29  A    between atoms: _68  and  _70
REMARK   30  A    between atoms: _70  and  _71
REMARK   31  A    between atoms: _74  and  _76
REMARK   32  A    between atoms: _76  and  _77
REMARK   33  A    between atoms: _76  and  _79
REMARK   34  A    between atoms: _79  and  _80
REMARK   35  A    between atoms: _83  and  _85
REMARK   36  A    between atoms: _85  and  _86
REMARK   37  A    between atoms: _85  and  _88
REMARK   38  A    between atoms: _88  and  _89
REMARK   39  A    between atoms: _92  and  _94
REMARK   40  A    between atoms: _94  and  _95
REMARK   41  A    between atoms: _94  and  _97
REMARK   42  A    between atoms: _97  and  _98
REMARK   43  A    between atoms: _101  and  _103
REMARK   44  A    between atoms: _103  and  _104
REMARK   45  A    between atoms: _103  and  _106
REMARK   46  A    between atoms: _109  and  _111
REMARK   47  A    between atoms: _111  and  _112
REMARK   48  A    between atoms: _111  and  _114
REMARK   49  A    between atoms: _114  and  _115
REMARK   50  A    between atoms: _115  and  _116
REMARK   51  A    between atoms: _116  and  _117
REMARK   52  A    between atoms: _117  and  _118
REMARK   53  A    between atoms: _122  and  _124
REMARK   54  A    between atoms: _124  and  _125
REMARK   55  A    between atoms: _124  and  _127
REMARK   56  A    between atoms: _127  and  _128
REMARK   57  A    between atoms: _128  and  _129
REMARK   58  A    between atoms: _131  and  _133
REMARK   59  A    between atoms: _133  and  _134
REMARK   60  A    between atoms: _133  and  _136
REMARK   61  A    between atoms: _136  and  _137
REMARK   62  A    between atoms: _140  and  _142
REMARK   63  A    between atoms: _142  and  _143
REMARK   64  A    between atoms: _145  and  _147
REMARK   65  A    between atoms: _147  and  _148
REMARK   66  A    between atoms: _150  and  _152
REMARK   67  A    between atoms: _152  and  _153
REMARK   68  A    between atoms: _152  and  _155
REMARK   69  A    between atoms: _158  and  _160
REMARK   70  A    between atoms: _160  and  _161
REMARK   71  A    between atoms: _163  and  _165
REMARK   72  A    between atoms: _165  and  _166
REMARK   73  A    between atoms: _168  and  _170
REMARK   74  A    between atoms: _170  and  _171
REMARK   75  A    between atoms: _170  and  _173
REMARK   76  A    between atoms: _173  and  _174
REMARK   77  A    between atoms: _180  and  _182
REMARK   78  A    between atoms: _182  and  _183
REMARK   79  A    between atoms: _182  and  _185
REMARK   80  A    between atoms: _185  and  _186
REMARK   81  A    between atoms: _189  and  _191
REMARK   82  A    between atoms: _191  and  _192
REMARK   83  A    between atoms: _191  and  _194
REMARK   84  A    between atoms: _194  and  _195
REMARK   85  A    between atoms: _198  and  _200
REMARK   86  A    between atoms: _200  and  _201
REMARK   87  A    between atoms: _200  and  _203
REMARK   88  A    between atoms: _203  and  _204
REMARK   89  A    between atoms: _208  and  _209
REMARK   90  A    between atoms: _214  and  _216
REMARK   91  A    between atoms: _216  and  _217
REMARK   92  A    between atoms: _216  and  _219
REMARK   93  A    between atoms: _222  and  _224
REMARK   94  A    between atoms: _224  and  _225
REMARK   95  A    between atoms: _224  and  _227
REMARK   96  A    between atoms: _227  and  _228
REMARK   97  A    between atoms: _233  and  _235
REMARK   98  A    between atoms: _235  and  _236
REMARK   99  A    between atoms: _235  and  _238
REMARK  100  A    between atoms: _238  and  _239
REMARK  101  A    between atoms: _242  and  _244
REMARK  102  A    between atoms: _244  and  _245
REMARK  103  A    between atoms: _244  and  _247
REMARK  104  A    between atoms: _247  and  _248
REMARK  105  A    between atoms: _251  and  _253
REMARK  106  A    between atoms: _253  and  _254
REMARK  107  A    between atoms: _256  and  _258
REMARK  108  A    between atoms: _258  and  _259
REMARK  109  A    between atoms: _258  and  _261
REMARK  110  A    between atoms: _261  and  _262
REMARK  111  A    between atoms: _262  and  _263
REMARK  112  A    between atoms: _263  and  _264
REMARK  113  A    between atoms: _273  and  _275
REMARK  114  A    between atoms: _275  and  _276
REMARK  115  A    between atoms: _275  and  _278
REMARK  116  A    between atoms: _278  and  _279
REMARK  117  A    between atoms: _284  and  _286
REMARK  118  A    between atoms: _286  and  _287
REMARK  119  A    between atoms: _286  and  _289
REMARK  120  A    between atoms: _289  and  _290
REMARK  121  A    between atoms: _290  and  _291
REMARK  122  A    between atoms: _291  and  _292
REMARK  123  A    between atoms: _302  and  _303
REMARK  124  A    between atoms: _308  and  _310
REMARK  125  A    between atoms: _310  and  _311
REMARK  126  A    between atoms: _310  and  _313
REMARK  127  A    between atoms: _313  and  _314
REMARK  128  A    between atoms: _317  and  _319
REMARK  129  A    between atoms: _319  and  _320
REMARK  130  A    between atoms: _319  and  _322
REMARK  131  A    between atoms: _322  and  _323
REMARK  132  A    between atoms: _326  and  _328
REMARK  133  A    between atoms: _328  and  _329
REMARK  134  A    between atoms: _328  and  _331
REMARK  135  A    between atoms: _331  and  _332
REMARK  136  A    between atoms: _335  and  _337
REMARK  137  A    between atoms: _337  and  _338
REMARK  138  A    between atoms: _337  and  _340
REMARK  139  A    between atoms: _340  and  _341
REMARK  140  A    between atoms: _344  and  _346
REMARK  141  A    between atoms: _346  and  _347
REMARK  142  A    between atoms: _346  and  _349
REMARK  143  A    between atoms: _349  and  _350
REMARK  144  A    between atoms: _353  and  _355
REMARK  145  A    between atoms: _355  and  _356
REMARK  146  A    between atoms: _358  and  _360
REMARK  147  A    between atoms: _360  and  _361
REMARK  148  A    between atoms: _364  and  _366
REMARK  149  A    between atoms: _366  and  _367
REMARK  150  A    between atoms: _366  and  _369
REMARK  151  A    between atoms: _369  and  _370
REMARK  152  A    between atoms: _373  and  _375
REMARK  153  A    between atoms: _375  and  _376
REMARK  154  A    between atoms: _375  and  _378
REMARK  155  A    between atoms: _378  and  _379
REMARK  156  A    between atoms: _382  and  _384
REMARK  157  A    between atoms: _384  and  _385
REMARK  158  A    between atoms: _384  and  _387
REMARK  159  A    between atoms: _387  and  _388
REMARK  160  A    between atoms: _391  and  _393
REMARK  161  A    between atoms: _393  and  _394
REMARK  162  A    between atoms: _393  and  _396
REMARK  163  A    between atoms: _399  and  _401
REMARK  164  A    between atoms: _401  and  _402
REMARK  165  A    between atoms: _401  and  _404
REMARK  166  A    between atoms: _404  and  _405
REMARK  167  A    between atoms: _408  and  _410
REMARK  168  A    between atoms: _410  and  _411
REMARK  169  A    between atoms: _410  and  _413
REMARK  170  A    between atoms: _413  and  _414
REMARK  171  A    between atoms: _417  and  _419
REMARK  172  A    between atoms: _419  and  _420
REMARK  173  A    between atoms: _422  and  _424
REMARK  174  A    between atoms: _424  and  _425
REMARK  175  A    between atoms: _427  and  _429
REMARK  176  A    between atoms: _429  and  _430
REMARK  177  A    between atoms: _429  and  _432
REMARK  178  A    between atoms: _435  and  _437
REMARK  179  A    between atoms: _437  and  _438
REMARK  180  A    between atoms: _440  and  _442
REMARK  181  A    between atoms: _442  and  _443
REMARK  182  A    between atoms: _445  and  _447
REMARK  183  A    between atoms: _447  and  _448
REMARK  184  A    between atoms: _447  and  _450
REMARK  185  A    between atoms: _450  and  _451
REMARK  186  A    between atoms: _457  and  _459
REMARK  187  A    between atoms: _459  and  _460
REMARK  188  A    between atoms: _459  and  _462
REMARK  189  A    between atoms: _462  and  _463
REMARK  190  A    between atoms: _466  and  _468
REMARK  191  A    between atoms: _468  and  _469
REMARK  192  A    between atoms: _468  and  _471
REMARK  193  A    between atoms: _474  and  _476
REMARK  194  A    between atoms: _476  and  _477
REMARK  195  A    between atoms: _476  and  _479
REMARK  196  A    between atoms: _479  and  _480
REMARK  197  A    between atoms: _483  and  _485
REMARK  198  A    between atoms: _485  and  _486
REMARK  199  A    between atoms: _485  and  _488
REMARK  200  A    between atoms: _488  and  _489
REMARK  201  A    between atoms: _493  and  _494
REMARK  202  A    between atoms: _499  and  _501
REMARK  203  A    between atoms: _501  and  _502
REMARK  204  A    between atoms: _501  and  _504
REMARK  205  A    between atoms: _507  and  _509
REMARK  206  A    between atoms: _509  and  _510
REMARK  207  A    between atoms: _509  and  _512
REMARK  208  A    between atoms: _512  and  _513
REMARK  209  A    between atoms: _518  and  _520
REMARK  210  A    between atoms: _520  and  _521
REMARK  211  A    between atoms: _520  and  _523
REMARK  212  A    between atoms: _523  and  _524
REMARK  213  A    between atoms: _527  and  _529
REMARK  214  A    between atoms: _529  and  _530
REMARK  215  A    between atoms: _529  and  _532
REMARK  216  A    between atoms: _532  and  _533
REMARK  217  A    between atoms: _536  and  _538
REMARK  218  A    between atoms: _538  and  _539
REMARK  219  A    between atoms: _541  and  _543
REMARK  220  A    between atoms: _543  and  _544
REMARK  221  A    between atoms: _543  and  _546
REMARK  222  A    between atoms: _546  and  _547
REMARK  223  A    between atoms: _547  and  _548
REMARK  224  A    between atoms: _548  and  _549
REMARK                            x       y       z     vdW  Elec       q    Type
REMARK                         _______ _______ _______ _____ _____    ______ ____
ROOT
ATOM      1  C   ARG A   1     -18.749  10.143  25.872  0.00  0.00    +0.241 C 
ATOM      2  O   ARG A   1     -19.160   9.689  26.954  0.00  0.00    -0.273 OA
ATOM      3  N   PRO A   2     -17.488  10.591  25.713  0.00  0.00    -0.272 N 
ATOM      4  CA  PRO A   2     -16.569  10.661  26.862  0.00  0.00    +0.152 C 
ATOM      5  CB  PRO A   2     -15.193  10.762  26.206  0.00  0.00    +0.031 C 
ATOM      6  CG  PRO A   2     -15.462  11.471  24.909  0.00  0.00    +0.024 C 
ATOM      7  CD  PRO A   2     -16.814  10.969  24.457  0.00  0.00    +0.094 C 
ENDROOT
BRANCH   4   8
ATOM      8  C   PRO A   2     -16.861  11.837  27.797  0.00  0.00    +0.241 C 
ATOM      9  N   LEU A   3     -17.966  11.686  28.522  0.00  0.00    -0.298 N 
ATOM     10  H   LEU A   3     -18.529  10.822  28.388  0.00  0.00    +0.150 HD
ATOM     11  O   PRO A   2     -16.126  12.838  27.843  0.00  0.00    -0.273 OA
BRANCH   9  12
ATOM     12  CA  LEU A   3     -18.428  12.666  29.492  0.00  0.00    +0.137 C 
BRANCH  12  13
ATOM     13  C   LEU A   3     -17.823  12.346  30.846  0.00  0.00    +0.227 C 
ATOM     14  O   LEU A   3     -17.806  11.192  31.275  0.00  0.00    -0.286 OA
ENDBRANCH  12  13
BRANCH  12  15
ATOM     15  CB  LEU A   3     -19.957  12.664  29.573  0.00  0.00    +0.028 C 
BRANCH  15  16
ATOM     16  CG  LEU A   3     -20.662  13.095  28.282  0.00  0.00    +0.002 C 
ATOM     17  CD2 LEU A   3     -22.129  12.722  28.315  0.00  0.00    +0.000 C 
ATOM     18  CD1 LEU A   3     -20.487  14.584  28.008  0.00  0.00    +0.000 C 
ENDBRANCH  15  16
ENDBRANCH  12  15
ENDBRANCH   9  12
ENDBRANCH   4   8
BRANCH   1  19
ATOM     19  CA  ARG A   1     -19.676  10.196  24.646  0.00  0.00    +0.145 C 
BRANCH  19  20
ATOM     20  N   ARG A   1     -20.384   8.926  24.498  0.00  0.00    -0.238 NA
ATOM     21  H   ARG A   1     -21.424   8.909  24.505  0.00  0.00    +0.142 HD
ENDBRANCH  19  20
BRANCH  19  22
ATOM     22  CB  ARG A   1     -20.677  11.334  24.800  0.00  0.00    +0.030 C 
BRANCH  22  23
ATOM     23  CG  ARG A   1     -21.447  11.616  23.539  0.00  0.00    +0.045 C 
BRANCH  23  24
ATOM     24  CD  ARG A   1     -22.350  12.818  23.740  0.00  0.00    +0.174 C 
BRANCH  24  25
ATOM     25  NE  ARG A   1     -23.064  13.108  22.501  0.00  0.00    -0.265 N 
ATOM     26  CZ  ARG A   1     -24.053  13.992  22.386  0.00  0.00    +0.342 C 
ATOM     27  NH2 ARG A   1     -24.448  14.696  23.435  0.00  0.00    -0.292 N 
ATOM     28 HH21 ARG A   1     -23.985  14.560  24.356  0.00  0.00    +0.255 HD
ATOM     29 HH22 ARG A   1     -25.221  15.385  23.338  0.00  0.00    +0.255 HD
ATOM     30  NH1 ARG A   1     -24.636  14.168  21.207  0.00  0.00    -0.292 N 
ATOM     31 HH11 ARG A   1     -25.409  14.856  21.107  0.00  0.00    +0.255 HD
ATOM     32 HH12 ARG A   1     -24.320  13.618  20.383  0.00  0.00    +0.255 HD
ATOM     33  HE  ARG A   1     -22.780  12.587  21.647  0.00  0.00    +0.259 HD
ENDBRANCH  24  25
ENDBRANCH  23  24
ENDBRANCH  22  23
ENDBRANCH  19  22
ENDBRANCH   1  19
TORSDOF 11
REMARK  Name = ../refined-set-2016/2o4l/2o4l_pocket.pdb
REMARK  224 active torsions:
REMARK  status: ('A' for Active; 'I' for Inactive)
REMARK    1  A    between atoms: _1  and  _3
REMARK    2  A    between atoms: _3  and  _4
REMARK    3  A    between atoms: _3  and  _6
REMARK    4  A    between atoms: _6  and  _7
REMARK    5  A    between atoms: _7  and  _8
REMARK    6  A    between atoms: _8  and  _9
REMARK    7  A    between atoms: _18  and  _20
REMARK    8  A    between atoms: _20  and  _21
REMARK    9  A    between atoms: _20  and  _23
REMARK   10  A    between atoms: _23  and  _24
REMARK   11  A    between atoms: _27  and  _29
REMARK   12  A    between atoms: _29  and  _30
REMARK   13  A    between atoms: _29  and  _32
REMARK   14  A    between atoms: _32  and  _33
REMARK   15  A    between atoms: _36  and  _38
REMARK   16  A    between atoms: _38  and  _39
REMARK   17  A    between atoms: _38  and  _41
REMARK   18  A    between atoms: _41  and  _42
REMARK   19  A    between atoms: _45  and  _47
REMARK   20  A    between atoms: _47  and  _48
REMARK   21  A    between atoms: _47  and  _50
REMARK   22  A    between atoms: _50  and  _51
REMARK   23  A    between atoms: _54  and  _56
REMARK   24  A    between atoms: _56  and  _57
REMARK   25  A    between atoms: _56  and  _59
REMARK   26  A    between atoms: _59  and  _60
REMARK   27  A    between atoms: _63  and  _65
REMARK   28  A    between atoms: _65  and  _66
REMARK   29  A    between atoms: _68  and  _70
REMARK   30  A    between atoms: _70  and  _71
REMARK   31  A    between atoms: _74  and  _76
REMARK   32  A    between atoms: _76  and  _77
REMARK   33  A    between atoms: _76  and  _79
REMARK   34  A    between atoms: _79  and  _80
REMARK   35  A    between atoms: _83  and  _85
REMARK   36  A    between atoms: _85  and  _86
REMARK   37  A    between atoms: _85  and  _88
REMARK   38  A    between atoms: _88  and  _89
REMARK   39  A    between atoms: _92  and  _94
REMARK   40  A    between atoms: _94  and  _95
REMARK   41  A    between atoms: _94  and  _97
REMARK   42  A    between atoms: _97  and  _98
REMARK   43  A    between atoms: _101  and  _103
REMARK   44  A    between atoms: _103  and  _104
REMARK   45  A    between atoms: _103  and  _106
REMARK   46  A    between atoms: _109  and  _111
REMARK   47  A    between atoms: _111  and  _112
REMARK   48  A    between atoms: _111  and  _114
REMARK   49  A    between atoms: _114  and  _115
REMARK   50  A    between atoms: _115  and  _116
REMARK   51  A    between atoms: _116  and  _117
REMARK   52  A    between atoms: _117  and  _118
REMARK   53  A    between atoms: _122  and  _124
REMARK   54  A    between atoms: _124  and  _125
REMARK   55  A    between atoms: _124  and  _127
REMARK   56  A    between atoms: _127  and  _128
REMARK   57  A    between atoms: _128  and  _129
REMARK   58  A    between atoms: _131  and  _133
REMARK   59  A    between atoms: _133  and  _134
REMARK   60  A    between atoms: _133  and  _136
REMARK   61  A    between atoms: _136  and  _137
REMARK   62  A    between atoms: _140  and  _142
REMARK   63  A    between atoms: _142  and  _143
REMARK   64  A    between atoms: _145  and  _147
REMARK   65  A    between atoms: _147  and  _148
REMARK   66  A    between atoms: _150  and  _152
REMARK   67  A    between atoms: _152  and  _153
REMARK   68  A    between atoms: _152  and  _155
REMARK   69  A    between atoms: _158  and  _160
REMARK   70  A    between atoms: _160  and  _161
REMARK   71  A    between atoms: _163  and  _165
REMARK   72  A    between atoms: _165  and  _166
REMARK   73  A    between atoms: _168  and  _170
REMARK   74  A    between atoms: _170  and  _171
REMARK   75  A    between atoms: _170  and  _173
REMARK   76  A    between atoms: _173  and  _174
REMARK   77  A    between atoms: _180  and  _182
REMARK   78  A    between atoms: _182  and  _183
REMARK   79  A    between atoms: _182  and  _185
REMARK   80  A    between atoms: _185  and  _186
REMARK   81  A    between atoms: _189  and  _191
REMARK   82  A    between atoms: _191  and  _192
REMARK   83  A    between atoms: _191  and  _194
REMARK   84  A    between atoms: _194  and  _195
REMARK   85  A    between atoms: _198  and  _200
REMARK   86  A    between atoms: _200  and  _201
REMARK   87  A    between atoms: _200  and  _203
REMARK   88  A    between atoms: _203  and  _204
REMARK   89  A    between atoms: _208  and  _209
REMARK   90  A    between atoms: _214  and  _216
REMARK   91  A    between atoms: _216  and  _217
REMARK   92  A    between atoms: _216  and  _219
REMARK   93  A    between atoms: _222  and  _224
REMARK   94  A    between atoms: _224  and  _225
REMARK   95  A    between atoms: _224  and  _227
REMARK   96  A    between atoms: _227  and  _228
REMARK   97  A    between atoms: _233  and  _235
REMARK   98  A    between atoms: _235  and  _236
REMARK   99  A    between atoms: _235  and  _238
REMARK  100  A    between atoms: _238  and  _239
REMARK  101  A    between atoms: _242  and  _244
REMARK  102  A    between atoms: _244  and  _245
REMARK  103  A    between atoms: _244  and  _247
REMARK  104  A    between atoms: _247  and  _248
REMARK  105  A    between atoms: _251  and  _253
REMARK  106  A    between atoms: _253  and  _254
REMARK  107  A    between atoms: _256  and  _258
REMARK  108  A    between atoms: _258  and  _259
REMARK  109  A    between atoms: _258  and  _261
REMARK  110  A    between atoms: _261  and  _262
REMARK  111  A    between atoms: _262  and  _263
REMARK  112  A    between atoms: _263  and  _264
REMARK  113  A    between atoms: _273  and  _275
REMARK  114  A    between atoms: _275  and  _276
REMARK  115  A    between atoms: _275  and  _278
REMARK  116  A    between atoms: _278  and  _279
REMARK  117  A    between atoms: _284  and  _286
REMARK  118  A    between atoms: _286  and  _287
REMARK  119  A    between atoms: _286  and  _289
REMARK  120  A    between atoms: _289  and  _290
REMARK  121  A    between atoms: _290  and  _291
REMARK  122  A    between atoms: _291  and  _292
REMARK  123  A    between atoms: _302  and  _303
REMARK  124  A    between atoms: _308  and  _310
REMARK  125  A    between atoms: _310  and  _311
REMARK  126  A    between atoms: _310  and  _313
REMARK  127  A    between atoms: _313  and  _314
REMARK  128  A    between atoms: _317  and  _319
REMARK  129  A    between atoms: _319  and  _320
REMARK  130  A    between atoms: _319  and  _322
REMARK  131  A    between atoms: _322  and  _323
REMARK  132  A    between atoms: _326  and  _328
REMARK  133  A    between atoms: _328  and  _329
REMARK  134  A    between atoms: _328  and  _331
REMARK  135  A    between atoms: _331  and  _332
REMARK  136  A    between atoms: _335  and  _337
REMARK  137  A    between atoms: _337  and  _338
REMARK  138  A    between atoms: _337  and  _340
REMARK  139  A    between atoms: _340  and  _341
REMARK  140  A    between atoms: _344  and  _346
REMARK  141  A    between atoms: _346  and  _347
REMARK  142  A    between atoms: _346  and  _349
REMARK  143  A    between atoms: _349  and  _350
REMARK  144  A    between atoms: _353  and  _355
REMARK  145  A    between atoms: _355  and  _356
REMARK  146  A    between atoms: _358  and  _360
REMARK  147  A    between atoms: _360  and  _361
REMARK  148  A    between atoms: _364  and  _366
REMARK  149  A    between atoms: _366  and  _367
REMARK  150  A    between atoms: _366  and  _369
REMARK  151  A    between atoms: _369  and  _370
REMARK  152  A    between atoms: _373  and  _375
REMARK  153  A    between atoms: _375  and  _376
REMARK  154  A    between atoms: _375  and  _378
REMARK  155  A    between atoms: _378  and  _379
REMARK  156  A    between atoms: _382  and  _384
REMARK  157  A    between atoms: _384  and  _385
REMARK  158  A    between atoms: _384  and  _387
REMARK  159  A    between atoms: _387  and  _388
REMARK  160  A    between atoms: _391  and  _393
REMARK  161  A    between atoms: _393  and  _394
REMARK  162  A    between atoms: _393  and  _396
REMARK  163  A    between atoms: _399  and  _401
REMARK  164  A    between atoms: _401  and  _402
REMARK  165  A    between atoms: _401  and  _404
REMARK  166  A    between atoms: _404  and  _405
REMARK  167  A    between atoms: _408  and  _410
REMARK  168  A    between atoms: _410  and  _411
REMARK  169  A    between atoms: _410  and  _413
REMARK  170  A    between atoms: _413  and  _414
REMARK  171  A    between atoms: _417  and  _419
REMARK  172  A    between atoms: _419  and  _420
REMARK  173  A    between atoms: _422  and  _424
REMARK  174  A    between atoms: _424  and  _425
REMARK  175  A    between atoms: _427  and  _429
REMARK  176  A    between atoms: _429  and  _430
REMARK  177  A    between atoms: _429  and  _432
REMARK  178  A    between atoms: _435  and  _437
REMARK  179  A    between atoms: _437  and  _438
REMARK  180  A    between atoms: _440  and  _442
REMARK  181  A    between atoms: _442  and  _443
REMARK  182  A    between atoms: _445  and  _447
REMARK  183  A    between atoms: _447  and  _448
REMARK  184  A    between atoms: _447  and  _450
REMARK  185  A    between atoms: _450  and  _451
REMARK  186  A    between atoms: _457  and  _459
REMARK  187  A    between atoms: _459  and  _460
REMARK  188  A    between atoms: _459  and  _462
REMARK  189  A    between atoms: _462  and  _463
REMARK  190  A    between atoms: _466  and  _468
REMARK  191  A    between atoms: _468  and  _469
REMARK  192  A    between atoms: _468  and  _471
REMARK  193  A    between atoms: _474  and  _476
REMARK  194  A    between atoms: _476  and  _477
REMARK  195  A    between atoms: _476  and  _479
REMARK  196  A    between atoms: _479  and  _480
REMARK  197  A    between atoms: _483  and  _485
REMARK  198  A    between atoms: _485  and  _486
REMARK  199  A    between atoms: _485  and  _488
REMARK  200  A    between atoms: _488  and  _489
REMARK  201  A    between atoms: _493  and  _494
REMARK  202  A    between atoms: _499  and  _501
REMARK  203  A    between atoms: _501  and  _502
REMARK  204  A    between atoms: _501  and  _504
REMARK  205  A    between atoms: _507  and  _509
REMARK  206  A    between atoms: _509  and  _510
REMARK  207  A    between atoms: _509  and  _512
REMARK  208  A    between atoms: _512  and  _513
REMARK  209  A    between atoms: _518  and  _520
REMARK  210  A    between atoms: _520  and  _521
REMARK  211  A    between atoms: _520  and  _523
REMARK  212  A    between atoms: _523  and  _524
REMARK  213  A    between atoms: _527  and  _529
REMARK  214  A    between atoms: _529  and  _530
REMARK  215  A    between atoms: _529  and  _532
REMARK  216  A    between atoms: _532  and  _533
REMARK  217  A    between atoms: _536  and  _538
REMARK  218  A    between atoms: _538  and  _539
REMARK  219  A    between atoms: _541  and  _543
REMARK  220  A    between atoms: _543  and  _544
REMARK  221  A    between atoms: _543  and  _546
REMARK  222  A    between atoms: _546  and  _547
REMARK  223  A    between atoms: _547  and  _548
REMARK  224  A    between atoms: _548  and  _549
REMARK                            x       y       z     vdW  Elec       q    Type
REMARK                         _______ _______ _______ _____ _____    ______ ____
ROOT
ATOM      1  C   ALA A   6      -9.536  21.591  20.801  0.00  0.00    +0.241 C 
ATOM      2  O   ALA A   6      -8.912  20.961  21.668  0.00  0.00    -0.273 OA
ATOM      3  N   ASP A   7      -9.060  22.697  20.232  0.00  0.00    -0.297 N 
ATOM      4  H   ASP A   7      -9.570  23.128  19.435  0.00  0.00    +0.150 HD
ENDROOT
BRANCH   1   5
ATOM      5  CA  ALA A   6     -10.915  21.119  20.360  0.00  0.00    +0.149 C 
ATOM      6  CB  ALA A   6     -11.888  21.197  21.523  0.00  0.00    +0.031 C 
BRANCH   5   8
ATOM      7  C   GLY A   5     -10.888  19.428  18.618  0.00  0.00    +0.243 C 
ATOM      8  N   ALA A   6     -10.827  19.744  19.899  0.00  0.00    -0.297 N 
ATOM      9  H   ALA A   6     -10.712  18.984  20.600  0.00  0.00    +0.150 HD
ATOM     10  O   GLY A   5     -11.073  20.277  17.750  0.00  0.00    -0.273 OA
BRANCH   7  11
ATOM     11  CA  GLY A   5     -10.744  17.959  18.244  0.00  0.00    +0.176 C 
BRANCH  11  14
ATOM     12  C   THR A   4      -9.447  16.762  19.948  0.00  0.00    +0.243 C 
ATOM     13  O   THR A   4      -8.373  17.197  19.500  0.00  0.00    -0.273 OA
ATOM     14  N   GLY A   5     -10.629  17.054  19.398  0.00  0.00    -0.295 N 
ATOM     15  H   GLY A   5     -11.491  16.630  19.796  0.00  0.00    +0.150 HD
BRANCH  12  16
ATOM     16  CA  THR A   4      -9.445  15.877  21.209  0.00  0.00    +0.176 C 
BRANCH  16  19
ATOM     17  C   ASP A   3     -11.330  16.788  22.434  0.00  0.00    +0.241 C 
ATOM     18  O   ASP A   3     -10.796  17.899  22.498  0.00  0.00    -0.273 OA
ATOM     19  N   THR A   4     -10.755  15.748  21.838  0.00  0.00    -0.295 N 
ATOM     20  H   THR A   4     -11.245  14.831  21.820  0.00  0.00    +0.150 HD
BRANCH  17  21
ATOM     21  CA  ASP A   3     -12.711  16.548  23.043  0.00  0.00    +0.160 C 
BRANCH  21  23
ATOM     22  C   LEU A   2     -13.192  15.213  25.024  0.00  0.00    +0.241 C 
ATOM     23  N   ASP A   3     -12.629  16.291  24.478  0.00  0.00    -0.297 N 
ATOM     24  H   ASP A   3     -12.121  16.963  25.087  0.00  0.00    +0.150 HD
ATOM     25  O   LEU A   2     -13.612  14.253  24.373  0.00  0.00    -0.273 OA
BRANCH  22  26
ATOM     26  CA  LEU A   2     -13.302  15.214  26.540  0.00  0.00    +0.149 C 
BRANCH  26  28
ATOM     27  C   LEU A   1     -15.428  16.370  26.834  0.00  0.00    +0.238 C 
ATOM     28  N   LEU A   2     -14.725  15.243  26.914  0.00  0.00    -0.297 N 
ATOM     29  H   LEU A   2     -15.187  14.372  27.245  0.00  0.00    +0.150 HD
ATOM     30  O   LEU A   1     -14.911  17.453  26.527  0.00  0.00    -0.274 OA
BRANCH  27  31
ATOM     31  CA  LEU A   1     -16.927  16.285  27.108  0.00  0.00    +0.145 C 
BRANCH  31  32
ATOM     32  N   LEU A   1     -17.284  17.211  28.169  0.00  0.00    -0.238 NA
ATOM     33  H   LEU A   1     -17.384  18.217  27.924  0.00  0.00    +0.142 HD
ENDBRANCH  31  32
BRANCH  31  34
ATOM     34  CB  LEU A   1     -17.700  16.677  25.841  0.00  0.00    +0.026 C 
BRANCH  34  35
ATOM     35  CG  LEU A   1     -17.532  15.840  24.585  0.00  0.00    +0.002 C 
ATOM     36  CD2 LEU A   1     -18.119  14.452  24.811  0.00  0.00    +0.000 C 
ATOM     37  CD1 LEU A   1     -18.208  16.548  23.417  0.00  0.00    +0.000 C 
ENDBRANCH  34  35
ENDBRANCH  31  34
ENDBRANCH  27  31
ENDBRANCH  26  28
BRANCH  26  38
ATOM     38  CB  LEU A   2     -12.594  13.997  27.142  0.00  0.00    +0.029 C 
BRANCH  38  39
ATOM     39  CG  LEU A   2     -12.706  13.836  28.663  0.00  0.00    +0.002 C 
ATOM     40  CD2 LEU A   2     -12.213  15.077  29.420  0.00  0.00    +0.000 C 
ATOM     41  CD1 LEU A   2     -11.925  12.590  29.084  0.00  0.00    +0.000 C 
ENDBRANCH  38  39
ENDBRANCH  26  38
ENDBRANCH  22  26
ENDBRANCH  21  23
BRANCH  21  42
ATOM     42  CB  ASP A   3     -13.645  17.746  22.806  0.00  0.00    +0.143 C 
BRANCH  42  43
ATOM     43  CG  ASP A   3     -14.025  17.925  21.369  0.00  0.00    +0.367 C 
ATOM     44  OD2 ASP A   3     -15.209  18.232  21.127  0.00  0.00    -0.246 OA
ATOM     45  OD1 ASP A   3     -13.163  17.786  20.498  0.00  0.00    -0.246 OA
ENDBRANCH  42  43
ENDBRANCH  21  42
ENDBRANCH  17  21
ENDBRANCH  16  19
BRANCH  16  46
ATOM     46  CB  THR A   4      -8.827  14.511  20.880  0.00  0.00    +0.137 C 
ATOM     47  CG2 THR A   4      -8.579  13.708  22.149  0.00  0.00    +0.034 C 
BRANCH  46  48
ATOM     48  OG1 THR A   4      -9.708  13.783  20.005  0.00  0.00    -0.382 OA
ATOM     49  HG1 THR A   4      -9.839  14.296  19.169  0.00  0.00    +0.210 HD
ENDBRANCH  46  48
ENDBRANCH  16  46
ENDBRANCH  12  16
ENDBRANCH  11  14
ENDBRANCH   7  11
ENDBRANCH   5   8
ENDBRANCH   1   5
BRANCH   3  50
ATOM     50  CA  ASP A   7      -7.826  23.310  20.719  0.00  0.00    +0.160 C 
BRANCH  50  51
ATOM     51  C   ASP A   7      -7.989  23.753  22.168  0.00  0.00    +0.241 C 
ATOM     52  O   ASP A   7      -7.072  23.633  22.972  0.00  0.00    -0.273 OA
ATOM     53  N   ASP A   8      -9.157  24.316  22.466  0.00  0.00    -0.297 N 
ATOM     54  H   ASP A   8      -9.936  24.231  21.782  0.00  0.00    +0.150 HD
BRANCH  53  55
ATOM     55  CA  ASP A   8      -9.397  25.042  23.697  0.00  0.00    +0.160 C 
BRANCH  55  56
ATOM     56  C   ASP A   8     -10.542  24.435  24.483  0.00  0.00    +0.241 C 
ATOM     57  N   THR A   9     -10.615  24.828  25.741  0.00  0.00    -0.295 N 
ATOM     58  H   THR A   9      -9.878  25.464  26.107  0.00  0.00    +0.150 HD
ATOM     59  O   ASP A   8     -11.345  23.656  23.967  0.00  0.00    -0.273 OA
BRANCH  57  60
ATOM     60  CA  THR A   9     -11.681  24.411  26.637  0.00  0.00    +0.176 C 
BRANCH  60  61
ATOM     61  C   THR A   9     -12.752  25.489  26.655  0.00  0.00    +0.243 C 
ATOM     62  O   THR A   9     -12.443  26.667  26.909  0.00  0.00    -0.273 OA
ATOM     63  N   VAL A  10     -13.992  25.100  26.365  0.00  0.00    -0.297 N 
ATOM     64  H   VAL A  10     -14.178  24.094  26.181  0.00  0.00    +0.150 HD
BRANCH  63  65
ATOM     65  CA  VAL A  10     -15.090  26.048  26.300  0.00  0.00    +0.149 C 
BRANCH  65  66
ATOM     66  C   VAL A  10     -16.270  25.545  27.135  0.00  0.00    +0.241 C 
ATOM     67  N   LEU A  11     -16.676  26.365  28.096  0.00  0.00    -0.298 N 
ATOM     68  H   LEU A  11     -16.201  27.284  28.202  0.00  0.00    +0.150 HD
ATOM     69  O   VAL A  10     -16.788  24.445  26.927  0.00  0.00    -0.273 OA
BRANCH  67  70
ATOM     70  CA  LEU A  11     -17.761  26.030  29.009  0.00  0.00    +0.137 C 
BRANCH  70  71
ATOM     71  C   LEU A  11     -18.983  26.879  28.730  0.00  0.00    +0.227 C 
ATOM     72  O   LEU A  11     -18.883  28.020  28.255  0.00  0.00    -0.286 OA
ENDBRANCH  70  71
BRANCH  70  73
ATOM     73  CB  LEU A  11     -17.326  26.207  30.470  0.00  0.00    +0.028 C 
BRANCH  73  74
ATOM     74  CG  LEU A  11     -16.072  25.440  30.907  0.00  0.00    +0.002 C 
ATOM     75  CD2 LEU A  11     -15.862  25.657  32.398  0.00  0.00    +0.000 C 
ATOM     76  CD1 LEU A  11     -16.137  23.951  30.585  0.00  0.00    +0.000 C 
ENDBRANCH  73  74
ENDBRANCH  70  73
ENDBRANCH  67  70
ENDBRANCH  65  66
BRANCH  65  77
ATOM     77  CB  VAL A  10     -15.600  26.211  24.852  0.00  0.00    +0.027 C 
ATOM     78  CG2 VAL A  10     -16.421  27.483  24.719  0.00  0.00    +0.002 C 
ATOM     79  CG1 VAL A  10     -14.455  26.216  23.839  0.00  0.00    +0.002 C 
ENDBRANCH  65  77
ENDBRANCH  63  65
ENDBRANCH  60  61
BRANCH  60  80
ATOM     80  CB  THR A   9     -11.076  24.188  28.028  0.00  0.00    +0.137 C 
ATOM     81  CG2 THR A   9     -12.144  23.978  29.085  0.00  0.00    +0.034 C 
BRANCH  80  82
ATOM     82  OG1 THR A   9     -10.222  23.037  27.970  0.00  0.00    -0.382 OA
ATOM     83  HG1 THR A   9      -9.503  23.194  27.308  0.00  0.00    +0.210 HD
ENDBRANCH  80  82
ENDBRANCH  60  80
ENDBRANCH  57  60
ENDBRANCH  55  56
BRANCH  55  84
ATOM     84  CB  ASP A   8      -9.766  26.498  23.393  0.00  0.00    +0.143 C 
BRANCH  84  85
ATOM     85  CG  ASP A   8      -8.809  27.165  22.451  0.00  0.00    +0.367 C 
ATOM     86  OD2 ASP A   8      -7.593  27.168  22.731  0.00  0.00    -0.246 OA
ATOM     87  OD1 ASP A   8      -9.303  27.686  21.434  0.00  0.00    -0.246 OA
ENDBRANCH  84  85
ENDBRANCH  55  84
ENDBRANCH  53  55
ENDBRANCH  50  51
BRANCH  50  88
ATOM     88  CB  ASP A   7      -7.439  24.566  19.907  0.00  0.00    +0.143 C 
BRANCH  88  89
ATOM     89  CG  ASP A   7      -7.200  24.312  18.436  0.00  0.00    +0.367 C 
ATOM     90  OD2 ASP A   7      -6.955  23.170  18.008  0.00  0.00    -0.246 OA
ATOM     91  OD1 ASP A   7      -7.227  25.331  17.693  0.00  0.00    -0.246 OA
ENDBRANCH  88  89
ENDBRANCH  50  88
ENDBRANCH   3  50
TORSDOF 39
REMARK  Name = ../refined-set-2016/2o4l/2o4l_pocket.pdb
REMARK  224 active torsions:
REMARK  status: ('A' for Active; 'I' for Inactive)
REMARK    1  A    between atoms: _1  and  _3
REMARK    2  A    between atoms: _3  and  _4
REMARK    3  A    between atoms: _3  and  _6
REMARK    4  A    between atoms: _6  and  _7
REMARK    5  A    between atoms: _7  and  _8
REMARK    6  A    between atoms: _8  and  _9
REMARK    7  A    between atoms: _18  and  _20
REMARK    8  A    between atoms: _20  and  _21
REMARK    9  A    between atoms: _20  and  _23
REMARK   10  A    between atoms: _23  and  _24
REMARK   11  A    between atoms: _27  and  _29
REMARK   12  A    between atoms: _29  and  _30
REMARK   13  A    between atoms: _29  and  _32
REMARK   14  A    between atoms: _32  and  _33
REMARK   15  A    between atoms: _36  and  _38
REMARK   16  A    between atoms: _38  and  _39
REMARK   17  A    between atoms: _38  and  _41
REMARK   18  A    between atoms: _41  and  _42
REMARK   19  A    between atoms: _45  and  _47
REMARK   20  A    between atoms: _47  and  _48
REMARK   21  A    between atoms: _47  and  _50
REMARK   22  A    between atoms: _50  and  _51
REMARK   23  A    between atoms: _54  and  _56
REMARK   24  A    between atoms: _56  and  _57
REMARK   25  A    between atoms: _56  and  _59
REMARK   26  A    between atoms: _59  and  _60
REMARK   27  A    between atoms: _63  and  _65
REMARK   28  A    between atoms: _65  and  _66
REMARK   29  A    between atoms: _68  and  _70
REMARK   30  A    between atoms: _70  and  _71
REMARK   31  A    between atoms: _74  and  _76
REMARK   32  A    between atoms: _76  and  _77
REMARK   33  A    between atoms: _76  and  _79
REMARK   34  A    between atoms: _79  and  _80
REMARK   35  A    between atoms: _83  and  _85
REMARK   36  A    between atoms: _85  and  _86
REMARK   37  A    between atoms: _85  and  _88
REMARK   38  A    between atoms: _88  and  _89
REMARK   39  A    between atoms: _92  and  _94
REMARK   40  A    between atoms: _94  and  _95
REMARK   41  A    between atoms: _94  and  _97
REMARK   42  A    between atoms: _97  and  _98
REMARK   43  A    between atoms: _101  and  _103
REMARK   44  A    between atoms: _103  and  _104
REMARK   45  A    between atoms: _103  and  _106
REMARK   46  A    between atoms: _109  and  _111
REMARK   47  A    between atoms: _111  and  _112
REMARK   48  A    between atoms: _111  and  _114
REMARK   49  A    between atoms: _114  and  _115
REMARK   50  A    between atoms: _115  and  _116
REMARK   51  A    between atoms: _116  and  _117
REMARK   52  A    between atoms: _117  and  _118
REMARK   53  A    between atoms: _122  and  _124
REMARK   54  A    between atoms: _124  and  _125
REMARK   55  A    between atoms: _124  and  _127
REMARK   56  A    between atoms: _127  and  _128
REMARK   57  A    between atoms: _128  and  _129
REMARK   58  A    between atoms: _131  and  _133
REMARK   59  A    between atoms: _133  and  _134
REMARK   60  A    between atoms: _133  and  _136
REMARK   61  A    between atoms: _136  and  _137
REMARK   62  A    between atoms: _140  and  _142
REMARK   63  A    between atoms: _142  and  _143
REMARK   64  A    between atoms: _145  and  _147
REMARK   65  A    between atoms: _147  and  _148
REMARK   66  A    between atoms: _150  and  _152
REMARK   67  A    between atoms: _152  and  _153
REMARK   68  A    between atoms: _152  and  _155
REMARK   69  A    between atoms: _158  and  _160
REMARK   70  A    between atoms: _160  and  _161
REMARK   71  A    between atoms: _163  and  _165
REMARK   72  A    between atoms: _165  and  _166
REMARK   73  A    between atoms: _168  and  _170
REMARK   74  A    between atoms: _170  and  _171
REMARK   75  A    between atoms: _170  and  _173
REMARK   76  A    between atoms: _173  and  _174
REMARK   77  A    between atoms: _180  and  _182
REMARK   78  A    between atoms: _182  and  _183
REMARK   79  A    between atoms: _182  and  _185
REMARK   80  A    between atoms: _185  and  _186
REMARK   81  A    between atoms: _189  and  _191
REMARK   82  A    between atoms: _191  and  _192
REMARK   83  A    between atoms: _191  and  _194
REMARK   84  A    between atoms: _194  and  _195
REMARK   85  A    between atoms: _198  and  _200
REMARK   86  A    between atoms: _200  and  _201
REMARK   87  A    between atoms: _200  and  _203
REMARK   88  A    between atoms: _203  and  _204
REMARK   89  A    between atoms: _208  and  _209
REMARK   90  A    between atoms: _214  and  _216
REMARK   91  A    between atoms: _216  and  _217
REMARK   92  A    between atoms: _216  and  _219
REMARK   93  A    between atoms: _222  and  _224
REMARK   94  A    between atoms: _224  and  _225
REMARK   95  A    between atoms: _224  and  _227
REMARK   96  A    between atoms: _227  and  _228
REMARK   97  A    between atoms: _233  and  _235
REMARK   98  A    between atoms: _235  and  _236
REMARK   99  A    between atoms: _235  and  _238
REMARK  100  A    between atoms: _238  and  _239
REMARK  101  A    between atoms: _242  and  _244
REMARK  102  A    between atoms: _244  and  _245
REMARK  103  A    between atoms: _244  and  _247
REMARK  104  A    between atoms: _247  and  _248
REMARK  105  A    between atoms: _251  and  _253
REMARK  106  A    between atoms: _253  and  _254
REMARK  107  A    between atoms: _256  and  _258
REMARK  108  A    between atoms: _258  and  _259
REMARK  109  A    between atoms: _258  and  _261
REMARK  110  A    between atoms: _261  and  _262
REMARK  111  A    between atoms: _262  and  _263
REMARK  112  A    between atoms: _263  and  _264
REMARK  113  A    between atoms: _273  and  _275
REMARK  114  A    between atoms: _275  and  _276
REMARK  115  A    between atoms: _275  and  _278
REMARK  116  A    between atoms: _278  and  _279
REMARK  117  A    between atoms: _284  and  _286
REMARK  118  A    between atoms: _286  and  _287
REMARK  119  A    between atoms: _286  and  _289
REMARK  120  A    between atoms: _289  and  _290
REMARK  121  A    between atoms: _290  and  _291
REMARK  122  A    between atoms: _291  and  _292
REMARK  123  A    between atoms: _302  and  _303
REMARK  124  A    between atoms: _308  and  _310
REMARK  125  A    between atoms: _310  and  _311
REMARK  126  A    between atoms: _310  and  _313
REMARK  127  A    between atoms: _313  and  _314
REMARK  128  A    between atoms: _317  and  _319
REMARK  129  A    between atoms: _319  and  _320
REMARK  130  A    between atoms: _319  and  _322
REMARK  131  A    between atoms: _322  and  _323
REMARK  132  A    between atoms: _326  and  _328
REMARK  133  A    between atoms: _328  and  _329
REMARK  134  A    between atoms: _328  and  _331
REMARK  135  A    between atoms: _331  and  _332
REMARK  136  A    between atoms: _335  and  _337
REMARK  137  A    between atoms: _337  and  _338
REMARK  138  A    between atoms: _337  and  _340
REMARK  139  A    between atoms: _340  and  _341
REMARK  140  A    between atoms: _344  and  _346
REMARK  141  A    between atoms: _346  and  _347
REMARK  142  A    between atoms: _346  and  _349
REMARK  143  A    between atoms: _349  and  _350
REMARK  144  A    between atoms: _353  and  _355
REMARK  145  A    between atoms: _355  and  _356
REMARK  146  A    between atoms: _358  and  _360
REMARK  147  A    between atoms: _360  and  _361
REMARK  148  A    between atoms: _364  and  _366
REMARK  149  A    between atoms: _366  and  _367
REMARK  150  A    between atoms: _366  and  _369
REMARK  151  A    between atoms: _369  and  _370
REMARK  152  A    between atoms: _373  and  _375
REMARK  153  A    between atoms: _375  and  _376
REMARK  154  A    between atoms: _375  and  _378
REMARK  155  A    between atoms: _378  and  _379
REMARK  156  A    between atoms: _382  and  _384
REMARK  157  A    between atoms: _384  and  _385
REMARK  158  A    between atoms: _384  and  _387
REMARK  159  A    between atoms: _387  and  _388
REMARK  160  A    between atoms: _391  and  _393
REMARK  161  A    between atoms: _393  and  _394
REMARK  162  A    between atoms: _393  and  _396
REMARK  163  A    between atoms: _399  and  _401
REMARK  164  A    between atoms: _401  and  _402
REMARK  165  A    between atoms: _401  and  _404
REMARK  166  A    between atoms: _404  and  _405
REMARK  167  A    between atoms: _408  and  _410
REMARK  168  A    between atoms: _410  and  _411
REMARK  169  A    between atoms: _410  and  _413
REMARK  170  A    between atoms: _413  and  _414
REMARK  171  A    between atoms: _417  and  _419
REMARK  172  A    between atoms: _419  and  _420
REMARK  173  A    between atoms: _422  and  _424
REMARK  174  A    between atoms: _424  and  _425
REMARK  175  A    between atoms: _427  and  _429
REMARK  176  A    between atoms: _429  and  _430
REMARK  177  A    between atoms: _429  and  _432
REMARK  178  A    between atoms: _435  and  _437
REMARK  179  A    between atoms: _437  and  _438
REMARK  180  A    between atoms: _440  and  _442
REMARK  181  A    between atoms: _442  and  _443
REMARK  182  A    between atoms: _445  and  _447
REMARK  183  A    between atoms: _447  and  _448
REMARK  184  A    between atoms: _447  and  _450
REMARK  185  A    between atoms: _450  and  _451
REMARK  186  A    between atoms: _457  and  _459
REMARK  187  A    between atoms: _459  and  _460
REMARK  188  A    between atoms: _459  and  _462
REMARK  189  A    between atoms: _462  and  _463
REMARK  190  A    between atoms: _466  and  _468
REMARK  191  A    between atoms: _468  and  _469
REMARK  192  A    between atoms: _468  and  _471
REMARK  193  A    between atoms: _474  and  _476
REMARK  194  A    between atoms: _476  and  _477
REMARK  195  A    between atoms: _476  and  _479
REMARK  196  A    between atoms: _479  and  _480
REMARK  197  A    between atoms: _483  and  _485
REMARK  198  A    between atoms: _485  and  _486
REMARK  199  A    between atoms: _485  and  _488
REMARK  200  A    between atoms: _488  and  _489
REMARK  201  A    between atoms: _493  and  _494
REMARK  202  A    between atoms: _499  and  _501
REMARK  203  A    between atoms: _501  and  _502
REMARK  204  A    between atoms: _501  and  _504
REMARK  205  A    between atoms: _507  and  _509
REMARK  206  A    between atoms: _509  and  _510
REMARK  207  A    between atoms: _509  and  _512
REMARK  208  A    between atoms: _512  and  _513
REMARK  209  A    between atoms: _518  and  _520
REMARK  210  A    between atoms: _520  and  _521
REMARK  211  A    between atoms: _520  and  _523
REMARK  212  A    between atoms: _523  and  _524
REMARK  213  A    between atoms: _527  and  _529
REMARK  214  A    between atoms: _529  and  _530
REMARK  215  A    between atoms: _529  and  _532
REMARK  216  A    between atoms: _532  and  _533
REMARK  217  A    between atoms: _536  and  _538
REMARK  218  A    between atoms: _538  and  _539
REMARK  219  A    between atoms: _541  and  _543
REMARK  220  A    between atoms: _543  and  _544
REMARK  221  A    between atoms: _543  and  _546
REMARK  222  A    between atoms: _546  and  _547
REMARK  223  A    between atoms: _547  and  _548
REMARK  224  A    between atoms: _548  and  _549
REMARK                            x       y       z     vdW  Elec       q    Type
REMARK                         _______ _______ _______ _____ _____    ______ ____
ROOT
ATOM      1  C   VAL A   4     -19.464  23.390  12.433  0.00  0.00    +0.241 C 
ATOM      2  N   GLY A   5     -20.174  24.221  13.195  0.00  0.00    -0.295 N 
ATOM      3  H   GLY A   5     -19.937  24.298  14.205  0.00  0.00    +0.150 HD
ATOM      4  O   VAL A   4     -19.610  23.302  11.213  0.00  0.00    -0.273 OA
ENDROOT
BRANCH   2   5
ATOM      5  CA  GLY A   5     -21.282  25.035  12.665  0.00  0.00    +0.176 C 
BRANCH   5   6
ATOM      6  C   GLY A   5     -20.997  26.481  12.268  0.00  0.00    +0.243 C 
ATOM      7  N   GLY A   6     -19.798  26.962  12.601  0.00  0.00    -0.295 N 
ATOM      8  H   GLY A   6     -19.125  26.295  13.029  0.00  0.00    +0.150 HD
ATOM      9  O   GLY A   5     -21.846  27.133  11.650  0.00  0.00    -0.273 OA
BRANCH   7  10
ATOM     10  CA  GLY A   6     -19.344  28.333  12.422  0.00  0.00    +0.176 C 
BRANCH  10  11
ATOM     11  C   GLY A   6     -18.639  28.869  13.657  0.00  0.00    +0.243 C 
ATOM     12  O   GLY A   6     -18.125  28.108  14.480  0.00  0.00    -0.273 OA
ATOM     13  N   PHE A   7     -18.632  30.192  13.780  0.00  0.00    -0.297 N 
ATOM     14  H   PHE A   7     -19.192  30.754  13.108  0.00  0.00    +0.150 HD
BRANCH  13  15
ATOM     15  CA  PHE A   7     -17.876  30.894  14.812  0.00  0.00    +0.153 C 
BRANCH  15  16
ATOM     16  C   PHE A   7     -18.737  31.387  15.974  0.00  0.00    +0.241 C 
ATOM     17  N   ILE A   8     -18.168  31.383  17.175  0.00  0.00    -0.298 N 
ATOM     18  H   ILE A   8     -17.239  30.931  17.297  0.00  0.00    +0.150 HD
ATOM     19  O   PHE A   7     -19.897  31.762  15.784  0.00  0.00    -0.273 OA
BRANCH  17  20
ATOM     20  CA  ILE A   8     -18.821  32.002  18.330  0.00  0.00    +0.137 C 
BRANCH  20  21
ATOM     21  C   ILE A   8     -17.854  32.929  19.056  0.00  0.00    +0.227 C 
ATOM     22  O   ILE A   8     -16.631  32.726  19.022  0.00  0.00    -0.286 OA
ENDBRANCH  20  21
BRANCH  20  23
ATOM     23  CB  ILE A   8     -19.422  30.964  19.326  0.00  0.00    +0.026 C 
ATOM     24  CG2 ILE A   8     -20.535  30.161  18.649  0.00  0.00    +0.002 C 
BRANCH  23  25
ATOM     25  CG1 ILE A   8     -18.342  30.058  19.943  0.00  0.00    +0.002 C 
ATOM     26  CD1 ILE A   8     -18.812  29.235  21.138  0.00  0.00    +0.000 C 
ENDBRANCH  23  25
ENDBRANCH  20  23
ENDBRANCH  17  20
ENDBRANCH  15  16
BRANCH  15  27
ATOM     27  CB  PHE A   7     -17.116  32.072  14.184  0.00  0.00    +0.055 C 
BRANCH  27  28
ATOM     28  CG  PHE A   7     -16.001  31.645  13.274  0.00  0.00    -0.020 A 
ATOM     29  CD2 PHE A   7     -14.699  31.534  13.754  0.00  0.00    -0.004 A 
ATOM     30  CE2 PHE A   7     -13.653  31.121  12.912  0.00  0.00    -0.000 A 
ATOM     31  CZ  PHE A   7     -13.917  30.818  11.580  0.00  0.00    -0.000 A 
ATOM     32  CE1 PHE A   7     -15.220  30.916  11.092  0.00  0.00    -0.000 A 
ATOM     33  CD1 PHE A   7     -16.254  31.334  11.943  0.00  0.00    -0.004 A 
ENDBRANCH  27  28
ENDBRANCH  15  27
ENDBRANCH  13  15
ENDBRANCH  10  11
ENDBRANCH   7  10
ENDBRANCH   5   6
ENDBRANCH   2   5
BRANCH   1  34
ATOM     34  CA  VAL A   4     -18.399  22.534  13.133  0.00  0.00    +0.149 C 
BRANCH  34  36
ATOM     35  C   GLY A   3     -17.227  24.334  14.262  0.00  0.00    +0.243 C 
ATOM     36  N   VAL A   4     -17.854  23.166  14.335  0.00  0.00    -0.297 N 
ATOM     37  H   VAL A   4     -17.959  22.695  15.256  0.00  0.00    +0.150 HD
ATOM     38  O   GLY A   3     -17.080  24.951  13.193  0.00  0.00    -0.273 OA
BRANCH  35  39
ATOM     39  CA  GLY A   3     -16.706  24.898  15.571  0.00  0.00    +0.176 C 
BRANCH  39  42
ATOM     40  C   GLY A   2     -15.042  26.682  15.700  0.00  0.00    +0.243 C 
ATOM     41  O   GLY A   2     -14.246  25.981  16.331  0.00  0.00    -0.273 OA
ATOM     42  N   GLY A   3     -16.253  26.262  15.354  0.00  0.00    -0.295 N 
ATOM     43  H   GLY A   3     -16.906  26.938  14.908  0.00  0.00    +0.150 HD
BRANCH  40  44
ATOM     44  CA  GLY A   2     -14.683  28.095  15.263  0.00  0.00    +0.176 C 
BRANCH  44  47
ATOM     45  C   ILE A   1     -14.391  29.820  16.997  0.00  0.00    +0.238 C 
ATOM     46  O   ILE A   1     -15.581  30.148  16.950  0.00  0.00    -0.274 OA
ATOM     47  N   GLY A   2     -13.875  28.855  16.229  0.00  0.00    -0.296 N 
ATOM     48  H   GLY A   2     -12.863  28.633  16.318  0.00  0.00    +0.150 HD
BRANCH  45  49
ATOM     49  CA  ILE A   1     -13.459  30.459  18.013  0.00  0.00    +0.145 C 
BRANCH  49  50
ATOM     50  N   ILE A   1     -13.889  31.828  18.318  0.00  0.00    -0.238 NA
ATOM     51  H   ILE A   1     -14.859  31.992  18.654  0.00  0.00    +0.142 HD
ENDBRANCH  49  50
BRANCH  49  52
ATOM     52  CB  ILE A   1     -13.340  29.564  19.279  0.00  0.00    +0.025 C 
ATOM     53  CG2 ILE A   1     -12.271  30.105  20.221  0.00  0.00    +0.002 C 
BRANCH  52  54
ATOM     54  CG1 ILE A   1     -14.685  29.439  20.005  0.00  0.00    +0.002 C 
ATOM     55  CD1 ILE A   1     -14.721  28.401  21.140  0.00  0.00    +0.000 C 
ENDBRANCH  52  54
ENDBRANCH  49  52
ENDBRANCH  45  49
ENDBRANCH  44  47
ENDBRANCH  40  44
ENDBRANCH  39  42
ENDBRANCH  35  39
ENDBRANCH  34  36
BRANCH  34  56
ATOM     56  CB  VAL A   4     -18.906  21.092  13.424  0.00  0.00    +0.027 C 
ATOM     57  CG2 VAL A   4     -20.250  21.079  14.167  0.00  0.00    +0.002 C 
ATOM     58  CG1 VAL A   4     -18.964  20.253  12.139  0.00  0.00    +0.002 C 
ENDBRANCH  34  56
ENDBRANCH   1  34
TORSDOF 23
REMARK  Name = ../refined-set-2016/2o4l/2o4l_pocket.pdb
REMARK  224 active torsions:
REMARK  status: ('A' for Active; 'I' for Inactive)
REMARK    1  A    between atoms: _1  and  _3
REMARK    2  A    between atoms: _3  and  _4
REMARK    3  A    between atoms: _3  and  _6
REMARK    4  A    between atoms: _6  and  _7
REMARK    5  A    between atoms: _7  and  _8
REMARK    6  A    between atoms: _8  and  _9
REMARK    7  A    between atoms: _18  and  _20
REMARK    8  A    between atoms: _20  and  _21
REMARK    9  A    between atoms: _20  and  _23
REMARK   10  A    between atoms: _23  and  _24
REMARK   11  A    between atoms: _27  and  _29
REMARK   12  A    between atoms: _29  and  _30
REMARK   13  A    between atoms: _29  and  _32
REMARK   14  A    between atoms: _32  and  _33
REMARK   15  A    between atoms: _36  and  _38
REMARK   16  A    between atoms: _38  and  _39
REMARK   17  A    between atoms: _38  and  _41
REMARK   18  A    between atoms: _41  and  _42
REMARK   19  A    between atoms: _45  and  _47
REMARK   20  A    between atoms: _47  and  _48
REMARK   21  A    between atoms: _47  and  _50
REMARK   22  A    between atoms: _50  and  _51
REMARK   23  A    between atoms: _54  and  _56
REMARK   24  A    between atoms: _56  and  _57
REMARK   25  A    between atoms: _56  and  _59
REMARK   26  A    between atoms: _59  and  _60
REMARK   27  A    between atoms: _63  and  _65
REMARK   28  A    between atoms: _65  and  _66
REMARK   29  A    between atoms: _68  and  _70
REMARK   30  A    between atoms: _70  and  _71
REMARK   31  A    between atoms: _74  and  _76
REMARK   32  A    between atoms: _76  and  _77
REMARK   33  A    between atoms: _76  and  _79
REMARK   34  A    between atoms: _79  and  _80
REMARK   35  A    between atoms: _83  and  _85
REMARK   36  A    between atoms: _85  and  _86
REMARK   37  A    between atoms: _85  and  _88
REMARK   38  A    between atoms: _88  and  _89
REMARK   39  A    between atoms: _92  and  _94
REMARK   40  A    between atoms: _94  and  _95
REMARK   41  A    between atoms: _94  and  _97
REMARK   42  A    between atoms: _97  and  _98
REMARK   43  A    between atoms: _101  and  _103
REMARK   44  A    between atoms: _103  and  _104
REMARK   45  A    between atoms: _103  and  _106
REMARK   46  A    between atoms: _109  and  _111
REMARK   47  A    between atoms: _111  and  _112
REMARK   48  A    between atoms: _111  and  _114
REMARK   49  A    between atoms: _114  and  _115
REMARK   50  A    between atoms: _115  and  _116
REMARK   51  A    between atoms: _116  and  _117
REMARK   52  A    between atoms: _117  and  _118
REMARK   53  A    between atoms: _122  and  _124
REMARK   54  A    between atoms: _124  and  _125
REMARK   55  A    between atoms: _124  and  _127
REMARK   56  A    between atoms: _127  and  _128
REMARK   57  A    between atoms: _128  and  _129
REMARK   58  A    between atoms: _131  and  _133
REMARK   59  A    between atoms: _133  and  _134
REMARK   60  A    between atoms: _133  and  _136
REMARK   61  A    between atoms: _136  and  _137
REMARK   62  A    between atoms: _140  and  _142
REMARK   63  A    between atoms: _142  and  _143
REMARK   64  A    between atoms: _145  and  _147
REMARK   65  A    between atoms: _147  and  _148
REMARK   66  A    between atoms: _150  and  _152
REMARK   67  A    between atoms: _152  and  _153
REMARK   68  A    between atoms: _152  and  _155
REMARK   69  A    between atoms: _158  and  _160
REMARK   70  A    between atoms: _160  and  _161
REMARK   71  A    between atoms: _163  and  _165
REMARK   72  A    between atoms: _165  and  _166
REMARK   73  A    between atoms: _168  and  _170
REMARK   74  A    between atoms: _170  and  _171
REMARK   75  A    between atoms: _170  and  _173
REMARK   76  A    between atoms: _173  and  _174
REMARK   77  A    between atoms: _180  and  _182
REMARK   78  A    between atoms: _182  and  _183
REMARK   79  A    between atoms: _182  and  _185
REMARK   80  A    between atoms: _185  and  _186
REMARK   81  A    between atoms: _189  and  _191
REMARK   82  A    between atoms: _191  and  _192
REMARK   83  A    between atoms: _191  and  _194
REMARK   84  A    between atoms: _194  and  _195
REMARK   85  A    between atoms: _198  and  _200
REMARK   86  A    between atoms: _200  and  _201
REMARK   87  A    between atoms: _200  and  _203
REMARK   88  A    between atoms: _203  and  _204
REMARK   89  A    between atoms: _208  and  _209
REMARK   90  A    between atoms: _214  and  _216
REMARK   91  A    between atoms: _216  and  _217
REMARK   92  A    between atoms: _216  and  _219
REMARK   93  A    between atoms: _222  and  _224
REMARK   94  A    between atoms: _224  and  _225
REMARK   95  A    between atoms: _224  and  _227
REMARK   96  A    between atoms: _227  and  _228
REMARK   97  A    between atoms: _233  and  _235
REMARK   98  A    between atoms: _235  and  _236
REMARK   99  A    between atoms: _235  and  _238
REMARK  100  A    between atoms: _238  and  _239
REMARK  101  A    between atoms: _242  and  _244
REMARK  102  A    between atoms: _244  and  _245
REMARK  103  A    between atoms: _244  and  _247
REMARK  104  A    between atoms: _247  and  _248
REMARK  105  A    between atoms: _251  and  _253
REMARK  106  A    between atoms: _253  and  _254
REMARK  107  A    between atoms: _256  and  _258
REMARK  108  A    between atoms: _258  and  _259
REMARK  109  A    between atoms: _258  and  _261
REMARK  110  A    between atoms: _261  and  _262
REMARK  111  A    between atoms: _262  and  _263
REMARK  112  A    between atoms: _263  and  _264
REMARK  113  A    between atoms: _273  and  _275
REMARK  114  A    between atoms: _275  and  _276
REMARK  115  A    between atoms: _275  and  _278
REMARK  116  A    between atoms: _278  and  _279
REMARK  117  A    between atoms: _284  and  _286
REMARK  118  A    between atoms: _286  and  _287
REMARK  119  A    between atoms: _286  and  _289
REMARK  120  A    between atoms: _289  and  _290
REMARK  121  A    between atoms: _290  and  _291
REMARK  122  A    between atoms: _291  and  _292
REMARK  123  A    between atoms: _302  and  _303
REMARK  124  A    between atoms: _308  and  _310
REMARK  125  A    between atoms: _310  and  _311
REMARK  126  A    between atoms: _310  and  _313
REMARK  127  A    between atoms: _313  and  _314
REMARK  128  A    between atoms: _317  and  _319
REMARK  129  A    between atoms: _319  and  _320
REMARK  130  A    between atoms: _319  and  _322
REMARK  131  A    between atoms: _322  and  _323
REMARK  132  A    between atoms: _326  and  _328
REMARK  133  A    between atoms: _328  and  _329
REMARK  134  A    between atoms: _328  and  _331
REMARK  135  A    between atoms: _331  and  _332
REMARK  136  A    between atoms: _335  and  _337
REMARK  137  A    between atoms: _337  and  _338
REMARK  138  A    between atoms: _337  and  _340
REMARK  139  A    between atoms: _340  and  _341
REMARK  140  A    between atoms: _344  and  _346
REMARK  141  A    between atoms: _346  and  _347
REMARK  142  A    between atoms: _346  and  _349
REMARK  143  A    between atoms: _349  and  _350
REMARK  144  A    between atoms: _353  and  _355
REMARK  145  A    between atoms: _355  and  _356
REMARK  146  A    between atoms: _358  and  _360
REMARK  147  A    between atoms: _360  and  _361
REMARK  148  A    between atoms: _364  and  _366
REMARK  149  A    between atoms: _366  and  _367
REMARK  150  A    between atoms: _366  and  _369
REMARK  151  A    between atoms: _369  and  _370
REMARK  152  A    between atoms: _373  and  _375
REMARK  153  A    between atoms: _375  and  _376
REMARK  154  A    between atoms: _375  and  _378
REMARK  155  A    between atoms: _378  and  _379
REMARK  156  A    between atoms: _382  and  _384
REMARK  157  A    between atoms: _384  and  _385
REMARK  158  A    between atoms: _384  and  _387
REMARK  159  A    between atoms: _387  and  _388
REMARK  160  A    between atoms: _391  and  _393
REMARK  161  A    between atoms: _393  and  _394
REMARK  162  A    between atoms: _393  and  _396
REMARK  163  A    between atoms: _399  and  _401
REMARK  164  A    between atoms: _401  and  _402
REMARK  165  A    between atoms: _401  and  _404
REMARK  166  A    between atoms: _404  and  _405
REMARK  167  A    between atoms: _408  and  _410
REMARK  168  A    between atoms: _410  and  _411
REMARK  169  A    between atoms: _410  and  _413
REMARK  170  A    between atoms: _413  and  _414
REMARK  171  A    between atoms: _417  and  _419
REMARK  172  A    between atoms: _419  and  _420
REMARK  173  A    between atoms: _422  and  _424
REMARK  174  A    between atoms: _424  and  _425
REMARK  175  A    between atoms: _427  and  _429
REMARK  176  A    between atoms: _429  and  _430
REMARK  177  A    between atoms: _429  and  _432
REMARK  178  A    between atoms: _435  and  _437
REMARK  179  A    between atoms: _437  and  _438
REMARK  180  A    between atoms: _440  and  _442
REMARK  181  A    between atoms: _442  and  _443
REMARK  182  A    between atoms: _445  and  _447
REMARK  183  A    between atoms: _447  and  _448
REMARK  184  A    between atoms: _447  and  _450
REMARK  185  A    between atoms: _450  and  _451
REMARK  186  A    between atoms: _457  and  _459
REMARK  187  A    between atoms: _459  and  _460
REMARK  188  A    between atoms: _459  and  _462
REMARK  189  A    between atoms: _462  and  _463
REMARK  190  A    between atoms: _466  and  _468
REMARK  191  A    between atoms: _468  and  _469
REMARK  192  A    between atoms: _468  and  _471
REMARK  193  A    between atoms: _474  and  _476
REMARK  194  A    between atoms: _476  and  _477
REMARK  195  A    between atoms: _476  and  _479
REMARK  196  A    between atoms: _479  and  _480
REMARK  197  A    between atoms: _483  and  _485
REMARK  198  A    between atoms: _485  and  _486
REMARK  199  A    between atoms: _485  and  _488
REMARK  200  A    between atoms: _488  and  _489
REMARK  201  A    between atoms: _493  and  _494
REMARK  202  A    between atoms: _499  and  _501
REMARK  203  A    between atoms: _501  and  _502
REMARK  204  A    between atoms: _501  and  _504
REMARK  205  A    between atoms: _507  and  _509
REMARK  206  A    between atoms: _509  and  _510
REMARK  207  A    between atoms: _509  and  _512
REMARK  208  A    between atoms: _512  and  _513
REMARK  209  A    between atoms: _518  and  _520
REMARK  210  A    between atoms: _520  and  _521
REMARK  211  A    between atoms: _520  and  _523
REMARK  212  A    between atoms: _523  and  _524
REMARK  213  A    between atoms: _527  and  _529
REMARK  214  A    between atoms: _529  and  _530
REMARK  215  A    between atoms: _529  and  _532
REMARK  216  A    between atoms: _532  and  _533
REMARK  217  A    between atoms: _536  and  _538
REMARK  218  A    between atoms: _538  and  _539
REMARK  219  A    between atoms: _541  and  _543
REMARK  220  A    between atoms: _543  and  _544
REMARK  221  A    between atoms: _543  and  _546
REMARK  222  A    between atoms: _546  and  _547
REMARK  223  A    between atoms: _547  and  _548
REMARK  224  A    between atoms: _548  and  _549
REMARK                            x       y       z     vdW  Elec       q    Type
REMARK                         _______ _______ _______ _____ _____    ______ ____
ROOT
ATOM      1  CA  VAL A   1     -16.377  33.755  23.974  0.00  0.00    +0.133 C 
ENDROOT
BRANCH   1   2
ATOM      2  CB  VAL A   1     -15.715  32.342  24.012  0.00  0.00    +0.023 C 
ATOM      3  CG2 VAL A   1     -14.282  32.392  23.454  0.00  0.00    +0.002 C 
ATOM      4  CG1 VAL A   1     -16.532  31.320  23.240  0.00  0.00    +0.002 C 
ENDBRANCH   1   2
BRANCH   1   5
ATOM      5  N   VAL A   1     -16.517  34.259  22.611  0.00  0.00    -0.239 NA
ATOM      6  H   VAL A   1     -15.680  34.638  22.123  0.00  0.00    +0.142 HD
ENDBRANCH   1   5
BRANCH   1   7
ATOM      7  C   VAL A   1     -15.573  34.727  24.843  0.00  0.00    +0.224 C 
ATOM      8  O   VAL A   1     -14.868  35.614  24.344  0.00  0.00    -0.287 OA
ENDBRANCH   1   7
TORSDOF 3
REMARK  Name = ../refined-set-2016/2o4l/2o4l_pocket.pdb
REMARK  224 active torsions:
REMARK  status: ('A' for Active; 'I' for Inactive)
REMARK    1  A    between atoms: _1  and  _3
REMARK    2  A    between atoms: _3  and  _4
REMARK    3  A    between atoms: _3  and  _6
REMARK    4  A    between atoms: _6  and  _7
REMARK    5  A    between atoms: _7  and  _8
REMARK    6  A    between atoms: _8  and  _9
REMARK    7  A    between atoms: _18  and  _20
REMARK    8  A    between atoms: _20  and  _21
REMARK    9  A    between atoms: _20  and  _23
REMARK   10  A    between atoms: _23  and  _24
REMARK   11  A    between atoms: _27  and  _29
REMARK   12  A    between atoms: _29  and  _30
REMARK   13  A    between atoms: _29  and  _32
REMARK   14  A    between atoms: _32  and  _33
REMARK   15  A    between atoms: _36  and  _38
REMARK   16  A    between atoms: _38  and  _39
REMARK   17  A    between atoms: _38  and  _41
REMARK   18  A    between atoms: _41  and  _42
REMARK   19  A    between atoms: _45  and  _47
REMARK   20  A    between atoms: _47  and  _48
REMARK   21  A    between atoms: _47  and  _50
REMARK   22  A    between atoms: _50  and  _51
REMARK   23  A    between atoms: _54  and  _56
REMARK   24  A    between atoms: _56  and  _57
REMARK   25  A    between atoms: _56  and  _59
REMARK   26  A    between atoms: _59  and  _60
REMARK   27  A    between atoms: _63  and  _65
REMARK   28  A    between atoms: _65  and  _66
REMARK   29  A    between atoms: _68  and  _70
REMARK   30  A    between atoms: _70  and  _71
REMARK   31  A    between atoms: _74  and  _76
REMARK   32  A    between atoms: _76  and  _77
REMARK   33  A    between atoms: _76  and  _79
REMARK   34  A    between atoms: _79  and  _80
REMARK   35  A    between atoms: _83  and  _85
REMARK   36  A    between atoms: _85  and  _86
REMARK   37  A    between atoms: _85  and  _88
REMARK   38  A    between atoms: _88  and  _89
REMARK   39  A    between atoms: _92  and  _94
REMARK   40  A    between atoms: _94  and  _95
REMARK   41  A    between atoms: _94  and  _97
REMARK   42  A    between atoms: _97  and  _98
REMARK   43  A    between atoms: _101  and  _103
REMARK   44  A    between atoms: _103  and  _104
REMARK   45  A    between atoms: _103  and  _106
REMARK   46  A    between atoms: _109  and  _111
REMARK   47  A    between atoms: _111  and  _112
REMARK   48  A    between atoms: _111  and  _114
REMARK   49  A    between atoms: _114  and  _115
REMARK   50  A    between atoms: _115  and  _116
REMARK   51  A    between atoms: _116  and  _117
REMARK   52  A    between atoms: _117  and  _118
REMARK   53  A    between atoms: _122  and  _124
REMARK   54  A    between atoms: _124  and  _125
REMARK   55  A    between atoms: _124  and  _127
REMARK   56  A    between atoms: _127  and  _128
REMARK   57  A    between atoms: _128  and  _129
REMARK   58  A    between atoms: _131  and  _133
REMARK   59  A    between atoms: _133  and  _134
REMARK   60  A    between atoms: _133  and  _136
REMARK   61  A    between atoms: _136  and  _137
REMARK   62  A    between atoms: _140  and  _142
REMARK   63  A    between atoms: _142  and  _143
REMARK   64  A    between atoms: _145  and  _147
REMARK   65  A    between atoms: _147  and  _148
REMARK   66  A    between atoms: _150  and  _152
REMARK   67  A    between atoms: _152  and  _153
REMARK   68  A    between atoms: _152  and  _155
REMARK   69  A    between atoms: _158  and  _160
REMARK   70  A    between atoms: _160  and  _161
REMARK   71  A    between atoms: _163  and  _165
REMARK   72  A    between atoms: _165  and  _166
REMARK   73  A    between atoms: _168  and  _170
REMARK   74  A    between atoms: _170  and  _171
REMARK   75  A    between atoms: _170  and  _173
REMARK   76  A    between atoms: _173  and  _174
REMARK   77  A    between atoms: _180  and  _182
REMARK   78  A    between atoms: _182  and  _183
REMARK   79  A    between atoms: _182  and  _185
REMARK   80  A    between atoms: _185  and  _186
REMARK   81  A    between atoms: _189  and  _191
REMARK   82  A    between atoms: _191  and  _192
REMARK   83  A    between atoms: _191  and  _194
REMARK   84  A    between atoms: _194  and  _195
REMARK   85  A    between atoms: _198  and  _200
REMARK   86  A    between atoms: _200  and  _201
REMARK   87  A    between atoms: _200  and  _203
REMARK   88  A    between atoms: _203  and  _204
REMARK   89  A    between atoms: _208  and  _209
REMARK   90  A    between atoms: _214  and  _216
REMARK   91  A    between atoms: _216  and  _217
REMARK   92  A    between atoms: _216  and  _219
REMARK   93  A    between atoms: _222  and  _224
REMARK   94  A    between atoms: _224  and  _225
REMARK   95  A    between atoms: _224  and  _227
REMARK   96  A    between atoms: _227  and  _228
REMARK   97  A    between atoms: _233  and  _235
REMARK   98  A    between atoms: _235  and  _236
REMARK   99  A    between atoms: _235  and  _238
REMARK  100  A    between atoms: _238  and  _239
REMARK  101  A    between atoms: _242  and  _244
REMARK  102  A    between atoms: _244  and  _245
REMARK  103  A    between atoms: _244  and  _247
REMARK  104  A    between atoms: _247  and  _248
REMARK  105  A    between atoms: _251  and  _253
REMARK  106  A    between atoms: _253  and  _254
REMARK  107  A    between atoms: _256  and  _258
REMARK  108  A    between atoms: _258  and  _259
REMARK  109  A    between atoms: _258  and  _261
REMARK  110  A    between atoms: _261  and  _262
REMARK  111  A    between atoms: _262  and  _263
REMARK  112  A    between atoms: _263  and  _264
REMARK  113  A    between atoms: _273  and  _275
REMARK  114  A    between atoms: _275  and  _276
REMARK  115  A    between atoms: _275  and  _278
REMARK  116  A    between atoms: _278  and  _279
REMARK  117  A    between atoms: _284  and  _286
REMARK  118  A    between atoms: _286  and  _287
REMARK  119  A    between atoms: _286  and  _289
REMARK  120  A    between atoms: _289  and  _290
REMARK  121  A    between atoms: _290  and  _291
REMARK  122  A    between atoms: _291  and  _292
REMARK  123  A    between atoms: _302  and  _303
REMARK  124  A    between atoms: _308  and  _310
REMARK  125  A    between atoms: _310  and  _311
REMARK  126  A    between atoms: _310  and  _313
REMARK  127  A    between atoms: _313  and  _314
REMARK  128  A    between atoms: _317  and  _319
REMARK  129  A    between atoms: _319  and  _320
REMARK  130  A    between atoms: _319  and  _322
REMARK  131  A    between atoms: _322  and  _323
REMARK  132  A    between atoms: _326  and  _328
REMARK  133  A    between atoms: _328  and  _329
REMARK  134  A    between atoms: _328  and  _331
REMARK  135  A    between atoms: _331  and  _332
REMARK  136  A    between atoms: _335  and  _337
REMARK  137  A    between atoms: _337  and  _338
REMARK  138  A    between atoms: _337  and  _340
REMARK  139  A    between atoms: _340  and  _341
REMARK  140  A    between atoms: _344  and  _346
REMARK  141  A    between atoms: _346  and  _347
REMARK  142  A    between atoms: _346  and  _349
REMARK  143  A    between atoms: _349  and  _350
REMARK  144  A    between atoms: _353  and  _355
REMARK  145  A    between atoms: _355  and  _356
REMARK  146  A    between atoms: _358  and  _360
REMARK  147  A    between atoms: _360  and  _361
REMARK  148  A    between atoms: _364  and  _366
REMARK  149  A    between atoms: _366  and  _367
REMARK  150  A    between atoms: _366  and  _369
REMARK  151  A    between atoms: _369  and  _370
REMARK  152  A    between atoms: _373  and  _375
REMARK  153  A    between atoms: _375  and  _376
REMARK  154  A    between atoms: _375  and  _378
REMARK  155  A    between atoms: _378  and  _379
REMARK  156  A    between atoms: _382  and  _384
REMARK  157  A    between atoms: _384  and  _385
REMARK  158  A    between atoms: _384  and  _387
REMARK  159  A    between atoms: _387  and  _388
REMARK  160  A    between atoms: _391  and  _393
REMARK  161  A    between atoms: _393  and  _394
REMARK  162  A    between atoms: _393  and  _396
REMARK  163  A    between atoms: _399  and  _401
REMARK  164  A    between atoms: _401  and  _402
REMARK  165  A    between atoms: _401  and  _404
REMARK  166  A    between atoms: _404  and  _405
REMARK  167  A    between atoms: _408  and  _410
REMARK  168  A    between atoms: _410  and  _411
REMARK  169  A    between atoms: _410  and  _413
REMARK  170  A    between atoms: _413  and  _414
REMARK  171  A    between atoms: _417  and  _419
REMARK  172  A    between atoms: _419  and  _420
REMARK  173  A    between atoms: _422  and  _424
REMARK  174  A    between atoms: _424  and  _425
REMARK  175  A    between atoms: _427  and  _429
REMARK  176  A    between atoms: _429  and  _430
REMARK  177  A    between atoms: _429  and  _432
REMARK  178  A    between atoms: _435  and  _437
REMARK  179  A    between atoms: _437  and  _438
REMARK  180  A    between atoms: _440  and  _442
REMARK  181  A    between atoms: _442  and  _443
REMARK  182  A    between atoms: _445  and  _447
REMARK  183  A    between atoms: _447  and  _448
REMARK  184  A    between atoms: _447  and  _450
REMARK  185  A    between atoms: _450  and  _451
REMARK  186  A    between atoms: _457  and  _459
REMARK  187  A    between atoms: _459  and  _460
REMARK  188  A    between atoms: _459  and  _462
REMARK  189  A    between atoms: _462  and  _463
REMARK  190  A    between atoms: _466  and  _468
REMARK  191  A    between atoms: _468  and  _469
REMARK  192  A    between atoms: _468  and  _471
REMARK  193  A    between atoms: _474  and  _476
REMARK  194  A    between atoms: _476  and  _477
REMARK  195  A    between atoms: _476  and  _479
REMARK  196  A    between atoms: _479  and  _480
REMARK  197  A    between atoms: _483  and  _485
REMARK  198  A    between atoms: _485  and  _486
REMARK  199  A    between atoms: _485  and  _488
REMARK  200  A    between atoms: _488  and  _489
REMARK  201  A    between atoms: _493  and  _494
REMARK  202  A    between atoms: _499  and  _501
REMARK  203  A    between atoms: _501  and  _502
REMARK  204  A    between atoms: _501  and  _504
REMARK  205  A    between atoms: _507  and  _509
REMARK  206  A    between atoms: _509  and  _510
REMARK  207  A    between atoms: _509  and  _512
REMARK  208  A    between atoms: _512  and  _513
REMARK  209  A    between atoms: _518  and  _520
REMARK  210  A    between atoms: _520  and  _521
REMARK  211  A    between atoms: _520  and  _523
REMARK  212  A    between atoms: _523  and  _524
REMARK  213  A    between atoms: _527  and  _529
REMARK  214  A    between atoms: _529  and  _530
REMARK  215  A    between atoms: _529  and  _532
REMARK  216  A    between atoms: _532  and  _533
REMARK  217  A    between atoms: _536  and  _538
REMARK  218  A    between atoms: _538  and  _539
REMARK  219  A    between atoms: _541  and  _543
REMARK  220  A    between atoms: _543  and  _544
REMARK  221  A    between atoms: _543  and  _546
REMARK  222  A    between atoms: _546  and  _547
REMARK  223  A    between atoms: _547  and  _548
REMARK  224  A    between atoms: _548  and  _549
REMARK                            x       y       z     vdW  Elec       q    Type
REMARK                         _______ _______ _______ _____ _____    ______ ____
ROOT
ATOM      1  CA  LEU A   1     -13.361  30.086  27.511  0.00  0.00    +0.133 C 
ENDROOT
BRANCH   1   2
ATOM      2  N   LEU A   1     -12.523  29.176  28.301  0.00  0.00    -0.239 NA
ATOM      3  H   LEU A   1     -12.438  28.182  28.007  0.00  0.00    +0.142 HD
ENDBRANCH   1   2
BRANCH   1   4
ATOM      4  C   LEU A   1     -14.798  29.867  27.930  0.00  0.00    +0.224 C 
ATOM      5  O   LEU A   1     -15.183  28.737  28.255  0.00  0.00    -0.287 OA
ENDBRANCH   1   4
BRANCH   1   6
ATOM      6  CB  LEU A   1     -13.213  29.819  26.018  0.00  0.00    +0.025 C 
BRANCH   6   7
ATOM      7  CG  LEU A   1     -11.773  29.725  25.517  0.00  0.00    +0.002 C 
ATOM      8  CD2 LEU A   1     -11.015  31.021  25.801  0.00  0.00    +0.000 C 
ATOM      9  CD1 LEU A   1     -11.776  29.389  24.023  0.00  0.00    +0.000 C 
ENDBRANCH   6   7
ENDBRANCH   1   6
TORSDOF 4
REMARK  Name = ../refined-set-2016/2o4l/2o4l_pocket.pdb
REMARK  224 active torsions:
REMARK  status: ('A' for Active; 'I' for Inactive)
REMARK    1  A    between atoms: _1  and  _3
REMARK    2  A    between atoms: _3  and  _4
REMARK    3  A    between atoms: _3  and  _6
REMARK    4  A    between atoms: _6  and  _7
REMARK    5  A    between atoms: _7  and  _8
REMARK    6  A    between atoms: _8  and  _9
REMARK    7  A    between atoms: _18  and  _20
REMARK    8  A    between atoms: _20  and  _21
REMARK    9  A    between atoms: _20  and  _23
REMARK   10  A    between atoms: _23  and  _24
REMARK   11  A    between atoms: _27  and  _29
REMARK   12  A    between atoms: _29  and  _30
REMARK   13  A    between atoms: _29  and  _32
REMARK   14  A    between atoms: _32  and  _33
REMARK   15  A    between atoms: _36  and  _38
REMARK   16  A    between atoms: _38  and  _39
REMARK   17  A    between atoms: _38  and  _41
REMARK   18  A    between atoms: _41  and  _42
REMARK   19  A    between atoms: _45  and  _47
REMARK   20  A    between atoms: _47  and  _48
REMARK   21  A    between atoms: _47  and  _50
REMARK   22  A    between atoms: _50  and  _51
REMARK   23  A    between atoms: _54  and  _56
REMARK   24  A    between atoms: _56  and  _57
REMARK   25  A    between atoms: _56  and  _59
REMARK   26  A    between atoms: _59  and  _60
REMARK   27  A    between atoms: _63  and  _65
REMARK   28  A    between atoms: _65  and  _66
REMARK   29  A    between atoms: _68  and  _70
REMARK   30  A    between atoms: _70  and  _71
REMARK   31  A    between atoms: _74  and  _76
REMARK   32  A    between atoms: _76  and  _77
REMARK   33  A    between atoms: _76  and  _79
REMARK   34  A    between atoms: _79  and  _80
REMARK   35  A    between atoms: _83  and  _85
REMARK   36  A    between atoms: _85  and  _86
REMARK   37  A    between atoms: _85  and  _88
REMARK   38  A    between atoms: _88  and  _89
REMARK   39  A    between atoms: _92  and  _94
REMARK   40  A    between atoms: _94  and  _95
REMARK   41  A    between atoms: _94  and  _97
REMARK   42  A    between atoms: _97  and  _98
REMARK   43  A    between atoms: _101  and  _103
REMARK   44  A    between atoms: _103  and  _104
REMARK   45  A    between atoms: _103  and  _106
REMARK   46  A    between atoms: _109  and  _111
REMARK   47  A    between atoms: _111  and  _112
REMARK   48  A    between atoms: _111  and  _114
REMARK   49  A    between atoms: _114  and  _115
REMARK   50  A    between atoms: _115  and  _116
REMARK   51  A    between atoms: _116  and  _117
REMARK   52  A    between atoms: _117  and  _118
REMARK   53  A    between atoms: _122  and  _124
REMARK   54  A    between atoms: _124  and  _125
REMARK   55  A    between atoms: _124  and  _127
REMARK   56  A    between atoms: _127  and  _128
REMARK   57  A    between atoms: _128  and  _129
REMARK   58  A    between atoms: _131  and  _133
REMARK   59  A    between atoms: _133  and  _134
REMARK   60  A    between atoms: _133  and  _136
REMARK   61  A    between atoms: _136  and  _137
REMARK   62  A    between atoms: _140  and  _142
REMARK   63  A    between atoms: _142  and  _143
REMARK   64  A    between atoms: _145  and  _147
REMARK   65  A    between atoms: _147  and  _148
REMARK   66  A    between atoms: _150  and  _152
REMARK   67  A    between atoms: _152  and  _153
REMARK   68  A    between atoms: _152  and  _155
REMARK   69  A    between atoms: _158  and  _160
REMARK   70  A    between atoms: _160  and  _161
REMARK   71  A    between atoms: _163  and  _165
REMARK   72  A    between atoms: _165  and  _166
REMARK   73  A    between atoms: _168  and  _170
REMARK   74  A    between atoms: _170  and  _171
REMARK   75  A    between atoms: _170  and  _173
REMARK   76  A    between atoms: _173  and  _174
REMARK   77  A    between atoms: _180  and  _182
REMARK   78  A    between atoms: _182  and  _183
REMARK   79  A    between atoms: _182  and  _185
REMARK   80  A    between atoms: _185  and  _186
REMARK   81  A    between atoms: _189  and  _191
REMARK   82  A    between atoms: _191  and  _192
REMARK   83  A    between atoms: _191  and  _194
REMARK   84  A    between atoms: _194  and  _195
REMARK   85  A    between atoms: _198  and  _200
REMARK   86  A    between atoms: _200  and  _201
REMARK   87  A    between atoms: _200  and  _203
REMARK   88  A    between atoms: _203  and  _204
REMARK   89  A    between atoms: _208  and  _209
REMARK   90  A    between atoms: _214  and  _216
REMARK   91  A    between atoms: _216  and  _217
REMARK   92  A    between atoms: _216  and  _219
REMARK   93  A    between atoms: _222  and  _224
REMARK   94  A    between atoms: _224  and  _225
REMARK   95  A    between atoms: _224  and  _227
REMARK   96  A    between atoms: _227  and  _228
REMARK   97  A    between atoms: _233  and  _235
REMARK   98  A    between atoms: _235  and  _236
REMARK   99  A    between atoms: _235  and  _238
REMARK  100  A    between atoms: _238  and  _239
REMARK  101  A    between atoms: _242  and  _244
REMARK  102  A    between atoms: _244  and  _245
REMARK  103  A    between atoms: _244  and  _247
REMARK  104  A    between atoms: _247  and  _248
REMARK  105  A    between atoms: _251  and  _253
REMARK  106  A    between atoms: _253  and  _254
REMARK  107  A    between atoms: _256  and  _258
REMARK  108  A    between atoms: _258  and  _259
REMARK  109  A    between atoms: _258  and  _261
REMARK  110  A    between atoms: _261  and  _262
REMARK  111  A    between atoms: _262  and  _263
REMARK  112  A    between atoms: _263  and  _264
REMARK  113  A    between atoms: _273  and  _275
REMARK  114  A    between atoms: _275  and  _276
REMARK  115  A    between atoms: _275  and  _278
REMARK  116  A    between atoms: _278  and  _279
REMARK  117  A    between atoms: _284  and  _286
REMARK  118  A    between atoms: _286  and  _287
REMARK  119  A    between atoms: _286  and  _289
REMARK  120  A    between atoms: _289  and  _290
REMARK  121  A    between atoms: _290  and  _291
REMARK  122  A    between atoms: _291  and  _292
REMARK  123  A    between atoms: _302  and  _303
REMARK  124  A    between atoms: _308  and  _310
REMARK  125  A    between atoms: _310  and  _311
REMARK  126  A    between atoms: _310  and  _313
REMARK  127  A    between atoms: _313  and  _314
REMARK  128  A    between atoms: _317  and  _319
REMARK  129  A    between atoms: _319  and  _320
REMARK  130  A    between atoms: _319  and  _322
REMARK  131  A    between atoms: _322  and  _323
REMARK  132  A    between atoms: _326  and  _328
REMARK  133  A    between atoms: _328  and  _329
REMARK  134  A    between atoms: _328  and  _331
REMARK  135  A    between atoms: _331  and  _332
REMARK  136  A    between atoms: _335  and  _337
REMARK  137  A    between atoms: _337  and  _338
REMARK  138  A    between atoms: _337  and  _340
REMARK  139  A    between atoms: _340  and  _341
REMARK  140  A    between atoms: _344  and  _346
REMARK  141  A    between atoms: _346  and  _347
REMARK  142  A    between atoms: _346  and  _349
REMARK  143  A    between atoms: _349  and  _350
REMARK  144  A    between atoms: _353  and  _355
REMARK  145  A    between atoms: _355  and  _356
REMARK  146  A    between atoms: _358  and  _360
REMARK  147  A    between atoms: _360  and  _361
REMARK  148  A    between atoms: _364  and  _366
REMARK  149  A    between atoms: _366  and  _367
REMARK  150  A    between atoms: _366  and  _369
REMARK  151  A    between atoms: _369  and  _370
REMARK  152  A    between atoms: _373  and  _375
REMARK  153  A    between atoms: _375  and  _376
REMARK  154  A    between atoms: _375  and  _378
REMARK  155  A    between atoms: _378  and  _379
REMARK  156  A    between atoms: _382  and  _384
REMARK  157  A    between atoms: _384  and  _385
REMARK  158  A    between atoms: _384  and  _387
REMARK  159  A    between atoms: _387  and  _388
REMARK  160  A    between atoms: _391  and  _393
REMARK  161  A    between atoms: _393  and  _394
REMARK  162  A    between atoms: _393  and  _396
REMARK  163  A    between atoms: _399  and  _401
REMARK  164  A    between atoms: _401  and  _402
REMARK  165  A    between atoms: _401  and  _404
REMARK  166  A    between atoms: _404  and  _405
REMARK  167  A    between atoms: _408  and  _410
REMARK  168  A    between atoms: _410  and  _411
REMARK  169  A    between atoms: _410  and  _413
REMARK  170  A    between atoms: _413  and  _414
REMARK  171  A    between atoms: _417  and  _419
REMARK  172  A    between atoms: _419  and  _420
REMARK  173  A    between atoms: _422  and  _424
REMARK  174  A    between atoms: _424  and  _425
REMARK  175  A    between atoms: _427  and  _429
REMARK  176  A    between atoms: _429  and  _430
REMARK  177  A    between atoms: _429  and  _432
REMARK  178  A    between atoms: _435  and  _437
REMARK  179  A    between atoms: _437  and  _438
REMARK  180  A    between atoms: _440  and  _442
REMARK  181  A    between atoms: _442  and  _443
REMARK  182  A    between atoms: _445  and  _447
REMARK  183  A    between atoms: _447  and  _448
REMARK  184  A    between atoms: _447  and  _450
REMARK  185  A    between atoms: _450  and  _451
REMARK  186  A    between atoms: _457  and  _459
REMARK  187  A    between atoms: _459  and  _460
REMARK  188  A    between atoms: _459  and  _462
REMARK  189  A    between atoms: _462  and  _463
REMARK  190  A    between atoms: _466  and  _468
REMARK  191  A    between atoms: _468  and  _469
REMARK  192  A    between atoms: _468  and  _471
REMARK  193  A    between atoms: _474  and  _476
REMARK  194  A    between atoms: _476  and  _477
REMARK  195  A    between atoms: _476  and  _479
REMARK  196  A    between atoms: _479  and  _480
REMARK  197  A    between atoms: _483  and  _485
REMARK  198  A    between atoms: _485  and  _486
REMARK  199  A    between atoms: _485  and  _488
REMARK  200  A    between atoms: _488  and  _489
REMARK  201  A    between atoms: _493  and  _494
REMARK  202  A    between atoms: _499  and  _501
REMARK  203  A    between atoms: _501  and  _502
REMARK  204  A    between atoms: _501  and  _504
REMARK  205  A    between atoms: _507  and  _509
REMARK  206  A    between atoms: _509  and  _510
REMARK  207  A    between atoms: _509  and  _512
REMARK  208  A    between atoms: _512  and  _513
REMARK  209  A    between atoms: _518  and  _520
REMARK  210  A    between atoms: _520  and  _521
REMARK  211  A    between atoms: _520  and  _523
REMARK  212  A    between atoms: _523  and  _524
REMARK  213  A    between atoms: _527  and  _529
REMARK  214  A    between atoms: _529  and  _530
REMARK  215  A    between atoms: _529  and  _532
REMARK  216  A    between atoms: _532  and  _533
REMARK  217  A    between atoms: _536  and  _538
REMARK  218  A    between atoms: _538  and  _539
REMARK  219  A    between atoms: _541  and  _543
REMARK  220  A    between atoms: _543  and  _544
REMARK  221  A    between atoms: _543  and  _546
REMARK  222  A    between atoms: _546  and  _547
REMARK  223  A    between atoms: _547  and  _548
REMARK  224  A    between atoms: _548  and  _549
REMARK                            x       y       z     vdW  Elec       q    Type
REMARK                         _______ _______ _______ _____ _____    ______ ____
ROOT
ATOM      1  CA  ILE A   5     -15.941  20.940  26.230  0.00  0.00    +0.149 C 
ENDROOT
BRANCH   1   2
ATOM      2  C   ILE A   5     -14.563  21.119  26.868  0.00  0.00    +0.241 C 
ATOM      3  N   ILE A   6     -13.876  20.007  27.163  0.00  0.00    -0.297 N 
ATOM      4  H   ILE A   6     -14.356  19.088  27.086  0.00  0.00    +0.150 HD
ATOM      5  O   ILE A   5     -14.118  22.261  27.092  0.00  0.00    -0.273 OA
BRANCH   3   6
ATOM      6  CA  ILE A   6     -12.479  20.035  27.588  0.00  0.00    +0.149 C 
BRANCH   6   7
ATOM      7  C   ILE A   6     -11.615  19.789  26.366  0.00  0.00    +0.241 C 
ATOM      8  N   GLY A   7     -10.820  20.796  25.997  0.00  0.00    -0.295 N 
ATOM      9  H   GLY A   7     -10.812  21.669  26.562  0.00  0.00    +0.150 HD
ATOM     10  O   ILE A   6     -11.696  18.726  25.728  0.00  0.00    -0.273 OA
BRANCH   8  11
ATOM     11  CA  GLY A   7      -9.963  20.701  24.821  0.00  0.00    +0.176 C 
BRANCH  11  12
ATOM     12  C   GLY A   7      -8.516  20.406  25.146  0.00  0.00    +0.243 C 
ATOM     13  O   GLY A   7      -8.153  20.185  26.311  0.00  0.00    -0.273 OA
ATOM     14  N   ARG A   8      -7.678  20.446  24.114  0.00  0.00    -0.298 N 
ATOM     15  H   ARG A   8      -8.007  20.818  23.200  0.00  0.00    +0.150 HD
BRANCH  14  16
ATOM     16  CA  ARG A   8      -6.297  19.973  24.247  0.00  0.00    +0.137 C 
BRANCH  16  17
ATOM     17  C   ARG A   8      -5.461  20.747  25.258  0.00  0.00    +0.227 C 
ATOM     18  O   ARG A   8      -4.556  20.182  25.852  0.00  0.00    -0.286 OA
ENDBRANCH  16  17
BRANCH  16  19
ATOM     19  CB  ARG A   8      -5.579  19.926  22.893  0.00  0.00    +0.031 C 
BRANCH  19  20
ATOM     20  CG  ARG A   8      -6.140  18.871  21.932  0.00  0.00    +0.045 C 
BRANCH  20  21
ATOM     21  CD  ARG A   8      -5.342  18.775  20.634  0.00  0.00    +0.174 C 
BRANCH  21  22
ATOM     22  NE  ARG A   8      -5.378  20.024  19.880  0.00  0.00    -0.265 N 
ATOM     23  CZ  ARG A   8      -4.430  20.958  19.884  0.00  0.00    +0.342 C 
ATOM     24  NH2 ARG A   8      -3.309  20.788  20.587  0.00  0.00    -0.292 N 
ATOM     25 HH21 ARG A   8      -3.169  19.918  21.140  0.00  0.00    +0.255 HD
ATOM     26 HH22 ARG A   8      -2.575  21.525  20.582  0.00  0.00    +0.255 HD
ATOM     27  NH1 ARG A   8      -4.606  22.071  19.177  0.00  0.00    -0.292 N 
ATOM     28 HH11 ARG A   8      -3.871  22.807  19.174  0.00  0.00    +0.255 HD
ATOM     29 HH12 ARG A   8      -5.479  22.205  18.627  0.00  0.00    +0.255 HD
ATOM     30  HE  ARG A   8      -6.216  20.199  19.289  0.00  0.00    +0.259 HD
ENDBRANCH  21  22
ENDBRANCH  20  21
ENDBRANCH  19  20
ENDBRANCH  16  19
ENDBRANCH  14  16
ENDBRANCH  11  12
ENDBRANCH   8  11
ENDBRANCH   6   7
BRANCH   6  31
ATOM     31  CB  ILE A   6     -12.200  18.960  28.661  0.00  0.00    +0.027 C 
ATOM     32  CG2 ILE A   6     -10.763  19.055  29.185  0.00  0.00    +0.002 C 
BRANCH  31  33
ATOM     33  CG1 ILE A   6     -13.211  19.058  29.809  0.00  0.00    +0.002 C 
ATOM     34  CD1 ILE A   6     -13.306  20.433  30.479  0.00  0.00    +0.000 C 
ENDBRANCH  31  33
ENDBRANCH   6  31
ENDBRANCH   3   6
ENDBRANCH   1   2
BRANCH   1  37
ATOM     35  C   ASN A   4     -17.999  21.012  27.552  0.00  0.00    +0.241 C 
ATOM     36  O   ASN A   4     -18.164  19.779  27.499  0.00  0.00    -0.273 OA
ATOM     37  N   ILE A   5     -16.954  21.637  27.013  0.00  0.00    -0.297 N 
ATOM     38  H   ILE A   5     -16.857  22.662  27.156  0.00  0.00    +0.150 HD
BRANCH  35  39
ATOM     39  CA  ASN A   4     -19.034  21.898  28.241  0.00  0.00    +0.158 C 
BRANCH  39  41
ATOM     40  C   VAL A   3     -20.657  21.875  26.437  0.00  0.00    +0.241 C 
ATOM     41  N   ASN A   4     -20.358  21.593  27.701  0.00  0.00    -0.297 N 
ATOM     42  H   ASN A   4     -21.074  21.151  28.312  0.00  0.00    +0.150 HD
ATOM     43  O   VAL A   3     -19.919  22.547  25.713  0.00  0.00    -0.273 OA
BRANCH  40  44
ATOM     44  CA  VAL A   3     -21.975  21.313  25.909  0.00  0.00    +0.149 C 
BRANCH  44  47
ATOM     45  C   PRO A   2     -23.647  22.403  24.457  0.00  0.00    +0.241 C 
ATOM     46  O   PRO A   2     -24.600  21.896  25.053  0.00  0.00    -0.273 OA
ATOM     47  N   VAL A   3     -22.376  22.143  24.771  0.00  0.00    -0.297 N 
ATOM     48  H   VAL A   3     -21.629  22.553  24.174  0.00  0.00    +0.150 HD
BRANCH  45  52
ATOM     49  C   THR A   1     -22.510  25.286  23.735  0.00  0.00    +0.244 C 
ATOM     50  O   THR A   1     -23.145  25.501  24.772  0.00  0.00    -0.273 OA
ATOM     51  N   PRO A   2     -22.814  24.257  22.918  0.00  0.00    -0.272 N 
ATOM     52  CA  PRO A   2     -23.907  23.335  23.261  0.00  0.00    +0.152 C 
ATOM     53  CB  PRO A   2     -24.067  22.506  21.982  0.00  0.00    +0.031 C 
ATOM     54  CG  PRO A   2     -22.714  22.568  21.333  0.00  0.00    +0.024 C 
ATOM     55  CD  PRO A   2     -22.235  23.950  21.595  0.00  0.00    +0.094 C 
BRANCH  49  56
ATOM     56  CA  THR A   1     -21.339  26.205  23.341  0.00  0.00    +0.172 C 
BRANCH  56  57
ATOM     57  N   THR A   1     -21.606  27.560  23.790  0.00  0.00    -0.236 NA
ATOM     58  H   THR A   1     -21.187  27.892  24.682  0.00  0.00    +0.142 HD
ENDBRANCH  56  57
BRANCH  56  59
ATOM     59  CB  THR A   1     -20.030  25.693  23.964  0.00  0.00    +0.135 C 
ATOM     60  CG2 THR A   1     -20.049  25.799  25.495  0.00  0.00    +0.034 C 
BRANCH  59  61
ATOM     61  OG1 THR A   1     -19.844  24.332  23.581  0.00  0.00    -0.383 OA
ATOM     62  HG1 THR A   1     -20.607  23.791  23.907  0.00  0.00    +0.210 HD
ENDBRANCH  59  61
ENDBRANCH  56  59
ENDBRANCH  49  56
ENDBRANCH  45  52
ENDBRANCH  44  47
BRANCH  44  63
ATOM     63  CB  VAL A   3     -21.765  19.799  25.554  0.00  0.00    +0.027 C 
ATOM     64  CG2 VAL A   3     -23.094  19.100  25.244  0.00  0.00    +0.002 C 
ATOM     65  CG1 VAL A   3     -20.732  19.614  24.427  0.00  0.00    +0.002 C 
ENDBRANCH  44  63
ENDBRANCH  40  44
ENDBRANCH  39  41
BRANCH  39  66
ATOM     66  CB  ASN A   4     -18.986  21.615  29.731  0.00  0.00    +0.114 C 
BRANCH  66  67
ATOM     67  CG  ASN A   4     -19.909  22.502  30.530  0.00  0.00    +0.222 C 
ATOM     68  ND2 ASN A   4     -20.589  21.913  31.496  0.00  0.00    -0.329 N 
ATOM     69 HD21 ASN A   4     -21.219  22.473  32.104  0.00  0.00    +0.145 HD
ATOM     70 HD22 ASN A   4     -20.494  20.889  31.649  0.00  0.00    +0.145 HD
ATOM     71  OD1 ASN A   4     -19.984  23.711  30.306  0.00  0.00    -0.275 OA
ENDBRANCH  66  67
ENDBRANCH  39  66
ENDBRANCH  35  39
ENDBRANCH   1  37
BRANCH   1  72
ATOM     72  CB  ILE A   5     -15.902  21.492  24.792  0.00  0.00    +0.027 C 
ATOM     73  CG2 ILE A   5     -14.706  20.944  24.019  0.00  0.00    +0.002 C 
BRANCH  72  74
ATOM     74  CG1 ILE A   5     -17.218  21.192  24.066  0.00  0.00    +0.002 C 
ATOM     75  CD1 ILE A   5     -17.421  22.113  22.771  0.00  0.00    +0.000 C 
ENDBRANCH  72  74
ENDBRANCH   1  72
TORSDOF 28
REMARK  Name = ../refined-set-2016/2o4l/2o4l_pocket.pdb
REMARK  224 active torsions:
REMARK  status: ('A' for Active; 'I' for Inactive)
REMARK    1  A    between atoms: _1  and  _3
REMARK    2  A    between atoms: _3  and  _4
REMARK    3  A    between atoms: _3  and  _6
REMARK    4  A    between atoms: _6  and  _7
REMARK    5  A    between atoms: _7  and  _8
REMARK    6  A    between atoms: _8  and  _9
REMARK    7  A    between atoms: _18  and  _20
REMARK    8  A    between atoms: _20  and  _21
REMARK    9  A    between atoms: _20  and  _23
REMARK   10  A    between atoms: _23  and  _24
REMARK   11  A    between atoms: _27  and  _29
REMARK   12  A    between atoms: _29  and  _30
REMARK   13  A    between atoms: _29  and  _32
REMARK   14  A    between atoms: _32  and  _33
REMARK   15  A    between atoms: _36  and  _38
REMARK   16  A    between atoms: _38  and  _39
REMARK   17  A    between atoms: _38  and  _41
REMARK   18  A    between atoms: _41  and  _42
REMARK   19  A    between atoms: _45  and  _47
REMARK   20  A    between atoms: _47  and  _48
REMARK   21  A    between atoms: _47  and  _50
REMARK   22  A    between atoms: _50  and  _51
REMARK   23  A    between atoms: _54  and  _56
REMARK   24  A    between atoms: _56  and  _57
REMARK   25  A    between atoms: _56  and  _59
REMARK   26  A    between atoms: _59  and  _60
REMARK   27  A    between atoms: _63  and  _65
REMARK   28  A    between atoms: _65  and  _66
REMARK   29  A    between atoms: _68  and  _70
REMARK   30  A    between atoms: _70  and  _71
REMARK   31  A    between atoms: _74  and  _76
REMARK   32  A    between atoms: _76  and  _77
REMARK   33  A    between atoms: _76  and  _79
REMARK   34  A    between atoms: _79  and  _80
REMARK   35  A    between atoms: _83  and  _85
REMARK   36  A    between atoms: _85  and  _86
REMARK   37  A    between atoms: _85  and  _88
REMARK   38  A    between atoms: _88  and  _89
REMARK   39  A    between atoms: _92  and  _94
REMARK   40  A    between atoms: _94  and  _95
REMARK   41  A    between atoms: _94  and  _97
REMARK   42  A    between atoms: _97  and  _98
REMARK   43  A    between atoms: _101  and  _103
REMARK   44  A    between atoms: _103  and  _104
REMARK   45  A    between atoms: _103  and  _106
REMARK   46  A    between atoms: _109  and  _111
REMARK   47  A    between atoms: _111  and  _112
REMARK   48  A    between atoms: _111  and  _114
REMARK   49  A    between atoms: _114  and  _115
REMARK   50  A    between atoms: _115  and  _116
REMARK   51  A    between atoms: _116  and  _117
REMARK   52  A    between atoms: _117  and  _118
REMARK   53  A    between atoms: _122  and  _124
REMARK   54  A    between atoms: _124  and  _125
REMARK   55  A    between atoms: _124  and  _127
REMARK   56  A    between atoms: _127  and  _128
REMARK   57  A    between atoms: _128  and  _129
REMARK   58  A    between atoms: _131  and  _133
REMARK   59  A    between atoms: _133  and  _134
REMARK   60  A    between atoms: _133  and  _136
REMARK   61  A    between atoms: _136  and  _137
REMARK   62  A    between atoms: _140  and  _142
REMARK   63  A    between atoms: _142  and  _143
REMARK   64  A    between atoms: _145  and  _147
REMARK   65  A    between atoms: _147  and  _148
REMARK   66  A    between atoms: _150  and  _152
REMARK   67  A    between atoms: _152  and  _153
REMARK   68  A    between atoms: _152  and  _155
REMARK   69  A    between atoms: _158  and  _160
REMARK   70  A    between atoms: _160  and  _161
REMARK   71  A    between atoms: _163  and  _165
REMARK   72  A    between atoms: _165  and  _166
REMARK   73  A    between atoms: _168  and  _170
REMARK   74  A    between atoms: _170  and  _171
REMARK   75  A    between atoms: _170  and  _173
REMARK   76  A    between atoms: _173  and  _174
REMARK   77  A    between atoms: _180  and  _182
REMARK   78  A    between atoms: _182  and  _183
REMARK   79  A    between atoms: _182  and  _185
REMARK   80  A    between atoms: _185  and  _186
REMARK   81  A    between atoms: _189  and  _191
REMARK   82  A    between atoms: _191  and  _192
REMARK   83  A    between atoms: _191  and  _194
REMARK   84  A    between atoms: _194  and  _195
REMARK   85  A    between atoms: _198  and  _200
REMARK   86  A    between atoms: _200  and  _201
REMARK   87  A    between atoms: _200  and  _203
REMARK   88  A    between atoms: _203  and  _204
REMARK   89  A    between atoms: _208  and  _209
REMARK   90  A    between atoms: _214  and  _216
REMARK   91  A    between atoms: _216  and  _217
REMARK   92  A    between atoms: _216  and  _219
REMARK   93  A    between atoms: _222  and  _224
REMARK   94  A    between atoms: _224  and  _225
REMARK   95  A    between atoms: _224  and  _227
REMARK   96  A    between atoms: _227  and  _228
REMARK   97  A    between atoms: _233  and  _235
REMARK   98  A    between atoms: _235  and  _236
REMARK   99  A    between atoms: _235  and  _238
REMARK  100  A    between atoms: _238  and  _239
REMARK  101  A    between atoms: _242  and  _244
REMARK  102  A    between atoms: _244  and  _245
REMARK  103  A    between atoms: _244  and  _247
REMARK  104  A    between atoms: _247  and  _248
REMARK  105  A    between atoms: _251  and  _253
REMARK  106  A    between atoms: _253  and  _254
REMARK  107  A    between atoms: _256  and  _258
REMARK  108  A    between atoms: _258  and  _259
REMARK  109  A    between atoms: _258  and  _261
REMARK  110  A    between atoms: _261  and  _262
REMARK  111  A    between atoms: _262  and  _263
REMARK  112  A    between atoms: _263  and  _264
REMARK  113  A    between atoms: _273  and  _275
REMARK  114  A    between atoms: _275  and  _276
REMARK  115  A    between atoms: _275  and  _278
REMARK  116  A    between atoms: _278  and  _279
REMARK  117  A    between atoms: _284  and  _286
REMARK  118  A    between atoms: _286  and  _287
REMARK  119  A    between atoms: _286  and  _289
REMARK  120  A    between atoms: _289  and  _290
REMARK  121  A    between atoms: _290  and  _291
REMARK  122  A    between atoms: _291  and  _292
REMARK  123  A    between atoms: _302  and  _303
REMARK  124  A    between atoms: _308  and  _310
REMARK  125  A    between atoms: _310  and  _311
REMARK  126  A    between atoms: _310  and  _313
REMARK  127  A    between atoms: _313  and  _314
REMARK  128  A    between atoms: _317  and  _319
REMARK  129  A    between atoms: _319  and  _320
REMARK  130  A    between atoms: _319  and  _322
REMARK  131  A    between atoms: _322  and  _323
REMARK  132  A    between atoms: _326  and  _328
REMARK  133  A    between atoms: _328  and  _329
REMARK  134  A    between atoms: _328  and  _331
REMARK  135  A    between atoms: _331  and  _332
REMARK  136  A    between atoms: _335  and  _337
REMARK  137  A    between atoms: _337  and  _338
REMARK  138  A    between atoms: _337  and  _340
REMARK  139  A    between atoms: _340  and  _341
REMARK  140  A    between atoms: _344  and  _346
REMARK  141  A    between atoms: _346  and  _347
REMARK  142  A    between atoms: _346  and  _349
REMARK  143  A    between atoms: _349  and  _350
REMARK  144  A    between atoms: _353  and  _355
REMARK  145  A    between atoms: _355  and  _356
REMARK  146  A    between atoms: _358  and  _360
REMARK  147  A    between atoms: _360  and  _361
REMARK  148  A    between atoms: _364  and  _366
REMARK  149  A    between atoms: _366  and  _367
REMARK  150  A    between atoms: _366  and  _369
REMARK  151  A    between atoms: _369  and  _370
REMARK  152  A    between atoms: _373  and  _375
REMARK  153  A    between atoms: _375  and  _376
REMARK  154  A    between atoms: _375  and  _378
REMARK  155  A    between atoms: _378  and  _379
REMARK  156  A    between atoms: _382  and  _384
REMARK  157  A    between atoms: _384  and  _385
REMARK  158  A    between atoms: _384  and  _387
REMARK  159  A    between atoms: _387  and  _388
REMARK  160  A    between atoms: _391  and  _393
REMARK  161  A    between atoms: _393  and  _394
REMARK  162  A    between atoms: _393  and  _396
REMARK  163  A    between atoms: _399  and  _401
REMARK  164  A    between atoms: _401  and  _402
REMARK  165  A    between atoms: _401  and  _404
REMARK  166  A    between atoms: _404  and  _405
REMARK  167  A    between atoms: _408  and  _410
REMARK  168  A    between atoms: _410  and  _411
REMARK  169  A    between atoms: _410  and  _413
REMARK  170  A    between atoms: _413  and  _414
REMARK  171  A    between atoms: _417  and  _419
REMARK  172  A    between atoms: _419  and  _420
REMARK  173  A    between atoms: _422  and  _424
REMARK  174  A    between atoms: _424  and  _425
REMARK  175  A    between atoms: _427  and  _429
REMARK  176  A    between atoms: _429  and  _430
REMARK  177  A    between atoms: _429  and  _432
REMARK  178  A    between atoms: _435  and  _437
REMARK  179  A    between atoms: _437  and  _438
REMARK  180  A    between atoms: _440  and  _442
REMARK  181  A    between atoms: _442  and  _443
REMARK  182  A    between atoms: _445  and  _447
REMARK  183  A    between atoms: _447  and  _448
REMARK  184  A    between atoms: _447  and  _450
REMARK  185  A    between atoms: _450  and  _451
REMARK  186  A    between atoms: _457  and  _459
REMARK  187  A    between atoms: _459  and  _460
REMARK  188  A    between atoms: _459  and  _462
REMARK  189  A    between atoms: _462  and  _463
REMARK  190  A    between atoms: _466  and  _468
REMARK  191  A    between atoms: _468  and  _469
REMARK  192  A    between atoms: _468  and  _471
REMARK  193  A    between atoms: _474  and  _476
REMARK  194  A    between atoms: _476  and  _477
REMARK  195  A    between atoms: _476  and  _479
REMARK  196  A    between atoms: _479  and  _480
REMARK  197  A    between atoms: _483  and  _485
REMARK  198  A    between atoms: _485  and  _486
REMARK  199  A    between atoms: _485  and  _488
REMARK  200  A    between atoms: _488  and  _489
REMARK  201  A    between atoms: _493  and  _494
REMARK  202  A    between atoms: _499  and  _501
REMARK  203  A    between atoms: _501  and  _502
REMARK  204  A    between atoms: _501  and  _504
REMARK  205  A    between atoms: _507  and  _509
REMARK  206  A    between atoms: _509  and  _510
REMARK  207  A    between atoms: _509  and  _512
REMARK  208  A    between atoms: _512  and  _513
REMARK  209  A    between atoms: _518  and  _520
REMARK  210  A    between atoms: _520  and  _521
REMARK  211  A    between atoms: _520  and  _523
REMARK  212  A    between atoms: _523  and  _524
REMARK  213  A    between atoms: _527  and  _529
REMARK  214  A    between atoms: _529  and  _530
REMARK  215  A    between atoms: _529  and  _532
REMARK  216  A    between atoms: _532  and  _533
REMARK  217  A    between atoms: _536  and  _538
REMARK  218  A    between atoms: _538  and  _539
REMARK  219  A    between atoms: _541  and  _543
REMARK  220  A    between atoms: _543  and  _544
REMARK  221  A    between atoms: _543  and  _546
REMARK  222  A    between atoms: _546  and  _547
REMARK  223  A    between atoms: _547  and  _548
REMARK  224  A    between atoms: _548  and  _549
REMARK                            x       y       z     vdW  Elec       q    Type
REMARK                         _______ _______ _______ _____ _____    ______ ____
ROOT
ATOM      1  O   HOH     1     -20.844   9.601  10.719  0.00  0.00    +0.000 OA
ENDROOT
TORSDOF 0
REMARK  Name = ../refined-set-2016/2o4l/2o4l_pocket.pdb
REMARK  224 active torsions:
REMARK  status: ('A' for Active; 'I' for Inactive)
REMARK    1  A    between atoms: _1  and  _3
REMARK    2  A    between atoms: _3  and  _4
REMARK    3  A    between atoms: _3  and  _6
REMARK    4  A    between atoms: _6  and  _7
REMARK    5  A    between atoms: _7  and  _8
REMARK    6  A    between atoms: _8  and  _9
REMARK    7  A    between atoms: _18  and  _20
REMARK    8  A    between atoms: _20  and  _21
REMARK    9  A    between atoms: _20  and  _23
REMARK   10  A    between atoms: _23  and  _24
REMARK   11  A    between atoms: _27  and  _29
REMARK   12  A    between atoms: _29  and  _30
REMARK   13  A    between atoms: _29  and  _32
REMARK   14  A    between atoms: _32  and  _33
REMARK   15  A    between atoms: _36  and  _38
REMARK   16  A    between atoms: _38  and  _39
REMARK   17  A    between atoms: _38  and  _41
REMARK   18  A    between atoms: _41  and  _42
REMARK   19  A    between atoms: _45  and  _47
REMARK   20  A    between atoms: _47  and  _48
REMARK   21  A    between atoms: _47  and  _50
REMARK   22  A    between atoms: _50  and  _51
REMARK   23  A    between atoms: _54  and  _56
REMARK   24  A    between atoms: _56  and  _57
REMARK   25  A    between atoms: _56  and  _59
REMARK   26  A    between atoms: _59  and  _60
REMARK   27  A    between atoms: _63  and  _65
REMARK   28  A    between atoms: _65  and  _66
REMARK   29  A    between atoms: _68  and  _70
REMARK   30  A    between atoms: _70  and  _71
REMARK   31  A    between atoms: _74  and  _76
REMARK   32  A    between atoms: _76  and  _77
REMARK   33  A    between atoms: _76  and  _79
REMARK   34  A    between atoms: _79  and  _80
REMARK   35  A    between atoms: _83  and  _85
REMARK   36  A    between atoms: _85  and  _86
REMARK   37  A    between atoms: _85  and  _88
REMARK   38  A    between atoms: _88  and  _89
REMARK   39  A    between atoms: _92  and  _94
REMARK   40  A    between atoms: _94  and  _95
REMARK   41  A    between atoms: _94  and  _97
REMARK   42  A    between atoms: _97  and  _98
REMARK   43  A    between atoms: _101  and  _103
REMARK   44  A    between atoms: _103  and  _104
REMARK   45  A    between atoms: _103  and  _106
REMARK   46  A    between atoms: _109  and  _111
REMARK   47  A    between atoms: _111  and  _112
REMARK   48  A    between atoms: _111  and  _114
REMARK   49  A    between atoms: _114  and  _115
REMARK   50  A    between atoms: _115  and  _116
REMARK   51  A    between atoms: _116  and  _117
REMARK   52  A    between atoms: _117  and  _118
REMARK   53  A    between atoms: _122  and  _124
REMARK   54  A    between atoms: _124  and  _125
REMARK   55  A    between atoms: _124  and  _127
REMARK   56  A    between atoms: _127  and  _128
REMARK   57  A    between atoms: _128  and  _129
REMARK   58  A    between atoms: _131  and  _133
REMARK   59  A    between atoms: _133  and  _134
REMARK   60  A    between atoms: _133  and  _136
REMARK   61  A    between atoms: _136  and  _137
REMARK   62  A    between atoms: _140  and  _142
REMARK   63  A    between atoms: _142  and  _143
REMARK   64  A    between atoms: _145  and  _147
REMARK   65  A    between atoms: _147  and  _148
REMARK   66  A    between atoms: _150  and  _152
REMARK   67  A    between atoms: _152  and  _153
REMARK   68  A    between atoms: _152  and  _155
REMARK   69  A    between atoms: _158  and  _160
REMARK   70  A    between atoms: _160  and  _161
REMARK   71  A    between atoms: _163  and  _165
REMARK   72  A    between atoms: _165  and  _166
REMARK   73  A    between atoms: _168  and  _170
REMARK   74  A    between atoms: _170  and  _171
REMARK   75  A    between atoms: _170  and  _173
REMARK   76  A    between atoms: _173  and  _174
REMARK   77  A    between atoms: _180  and  _182
REMARK   78  A    between atoms: _182  and  _183
REMARK   79  A    between atoms: _182  and  _185
REMARK   80  A    between atoms: _185  and  _186
REMARK   81  A    between atoms: _189  and  _191
REMARK   82  A    between atoms: _191  and  _192
REMARK   83  A    between atoms: _191  and  _194
REMARK   84  A    between atoms: _194  and  _195
REMARK   85  A    between atoms: _198  and  _200
REMARK   86  A    between atoms: _200  and  _201
REMARK   87  A    between atoms: _200  and  _203
REMARK   88  A    between atoms: _203  and  _204
REMARK   89  A    between atoms: _208  and  _209
REMARK   90  A    between atoms: _214  and  _216
REMARK   91  A    between atoms: _216  and  _217
REMARK   92  A    between atoms: _216  and  _219
REMARK   93  A    between atoms: _222  and  _224
REMARK   94  A    between atoms: _224  and  _225
REMARK   95  A    between atoms: _224  and  _227
REMARK   96  A    between atoms: _227  and  _228
REMARK   97  A    between atoms: _233  and  _235
REMARK   98  A    between atoms: _235  and  _236
REMARK   99  A    between atoms: _235  and  _238
REMARK  100  A    between atoms: _238  and  _239
REMARK  101  A    between atoms: _242  and  _244
REMARK  102  A    between atoms: _244  and  _245
REMARK  103  A    between atoms: _244  and  _247
REMARK  104  A    between atoms: _247  and  _248
REMARK  105  A    between atoms: _251  and  _253
REMARK  106  A    between atoms: _253  and  _254
REMARK  107  A    between atoms: _256  and  _258
REMARK  108  A    between atoms: _258  and  _259
REMARK  109  A    between atoms: _258  and  _261
REMARK  110  A    between atoms: _261  and  _262
REMARK  111  A    between atoms: _262  and  _263
REMARK  112  A    between atoms: _263  and  _264
REMARK  113  A    between atoms: _273  and  _275
REMARK  114  A    between atoms: _275  and  _276
REMARK  115  A    between atoms: _275  and  _278
REMARK  116  A    between atoms: _278  and  _279
REMARK  117  A    between atoms: _284  and  _286
REMARK  118  A    between atoms: _286  and  _287
REMARK  119  A    between atoms: _286  and  _289
REMARK  120  A    between atoms: _289  and  _290
REMARK  121  A    between atoms: _290  and  _291
REMARK  122  A    between atoms: _291  and  _292
REMARK  123  A    between atoms: _302  and  _303
REMARK  124  A    between atoms: _308  and  _310
REMARK  125  A    between atoms: _310  and  _311
REMARK  126  A    between atoms: _310  and  _313
REMARK  127  A    between atoms: _313  and  _314
REMARK  128  A    between atoms: _317  and  _319
REMARK  129  A    between atoms: _319  and  _320
REMARK  130  A    between atoms: _319  and  _322
REMARK  131  A    between atoms: _322  and  _323
REMARK  132  A    between atoms: _326  and  _328
REMARK  133  A    between atoms: _328  and  _329
REMARK  134  A    between atoms: _328  and  _331
REMARK  135  A    between atoms: _331  and  _332
REMARK  136  A    between atoms: _335  and  _337
REMARK  137  A    between atoms: _337  and  _338
REMARK  138  A    between atoms: _337  and  _340
REMARK  139  A    between atoms: _340  and  _341
REMARK  140  A    between atoms: _344  and  _346
REMARK  141  A    between atoms: _346  and  _347
REMARK  142  A    between atoms: _346  and  _349
REMARK  143  A    between atoms: _349  and  _350
REMARK  144  A    between atoms: _353  and  _355
REMARK  145  A    between atoms: _355  and  _356
REMARK  146  A    between atoms: _358  and  _360
REMARK  147  A    between atoms: _360  and  _361
REMARK  148  A    between atoms: _364  and  _366
REMARK  149  A    between atoms: _366  and  _367
REMARK  150  A    between atoms: _366  and  _369
REMARK  151  A    between atoms: _369  and  _370
REMARK  152  A    between atoms: _373  and  _375
REMARK  153  A    between atoms: _375  and  _376
REMARK  154  A    between atoms: _375  and  _378
REMARK  155  A    between atoms: _378  and  _379
REMARK  156  A    between atoms: _382  and  _384
REMARK  157  A    between atoms: _384  and  _385
REMARK  158  A    between atoms: _384  and  _387
REMARK  159  A    between atoms: _387  and  _388
REMARK  160  A    between atoms: _391  and  _393
REMARK  161  A    between atoms: _393  and  _394
REMARK  162  A    between atoms: _393  and  _396
REMARK  163  A    between atoms: _399  and  _401
REMARK  164  A    between atoms: _401  and  _402
REMARK  165  A    between atoms: _401  and  _404
REMARK  166  A    between atoms: _404  and  _405
REMARK  167  A    between atoms: _408  and  _410
REMARK  168  A    between atoms: _410  and  _411
REMARK  169  A    between atoms: _410  and  _413
REMARK  170  A    between atoms: _413  and  _414
REMARK  171  A    between atoms: _417  and  _419
REMARK  172  A    between atoms: _419  and  _420
REMARK  173  A    between atoms: _422  and  _424
REMARK  174  A    between atoms: _424  and  _425
REMARK  175  A    between atoms: _427  and  _429
REMARK  176  A    between atoms: _429  and  _430
REMARK  177  A    between atoms: _429  and  _432
REMARK  178  A    between atoms: _435  and  _437
REMARK  179  A    between atoms: _437  and  _438
REMARK  180  A    between atoms: _440  and  _442
REMARK  181  A    between atoms: _442  and  _443
REMARK  182  A    between atoms: _445  and  _447
REMARK  183  A    between atoms: _447  and  _448
REMARK  184  A    between atoms: _447  and  _450
REMARK  185  A    between atoms: _450  and  _451
REMARK  186  A    between atoms: _457  and  _459
REMARK  187  A    between atoms: _459  and  _460
REMARK  188  A    between atoms: _459  and  _462
REMARK  189  A    between atoms: _462  and  _463
REMARK  190  A    between atoms: _466  and  _468
REMARK  191  A    between atoms: _468  and  _469
REMARK  192  A    between atoms: _468  and  _471
REMARK  193  A    between atoms: _474  and  _476
REMARK  194  A    between atoms: _476  and  _477
REMARK  195  A    between atoms: _476  and  _479
REMARK  196  A    between atoms: _479  and  _480
REMARK  197  A    between atoms: _483  and  _485
REMARK  198  A    between atoms: _485  and  _486
REMARK  199  A    between atoms: _485  and  _488
REMARK  200  A    between atoms: _488  and  _489
REMARK  201  A    between atoms: _493  and  _494
REMARK  202  A    between atoms: _499  and  _501
REMARK  203  A    between atoms: _501  and  _502
REMARK  204  A    between atoms: _501  and  _504
REMARK  205  A    between atoms: _507  and  _509
REMARK  206  A    between atoms: _509  and  _510
REMARK  207  A    between atoms: _509  and  _512
REMARK  208  A    between atoms: _512  and  _513
REMARK  209  A    between atoms: _518  and  _520
REMARK  210  A    between atoms: _520  and  _521
REMARK  211  A    between atoms: _520  and  _523
REMARK  212  A    between atoms: _523  and  _524
REMARK  213  A    between atoms: _527  and  _529
REMARK  214  A    between atoms: _529  and  _530
REMARK  215  A    between atoms: _529  and  _532
REMARK  216  A    between atoms: _532  and  _533
REMARK  217  A    between atoms: _536  and  _538
REMARK  218  A    between atoms: _538  and  _539
REMARK  219  A    between atoms: _541  and  _543
REMARK  220  A    between atoms: _543  and  _544
REMARK  221  A    between atoms: _543  and  _546
REMARK  222  A    between atoms: _546  and  _547
REMARK  223  A    between atoms: _547  and  _548
REMARK  224  A    between atoms: _548  and  _549
REMARK                            x       y       z     vdW  Elec       q    Type
REMARK                         _______ _______ _______ _____ _____    ______ ____
ROOT
ATOM      1  O   HOH     1     -22.884  27.245  19.431  0.00  0.00    +0.000 OA
ENDROOT
TORSDOF 0
REMARK  Name = ../refined-set-2016/2o4l/2o4l_pocket.pdb
REMARK  224 active torsions:
REMARK  status: ('A' for Active; 'I' for Inactive)
REMARK    1  A    between atoms: _1  and  _3
REMARK    2  A    between atoms: _3  and  _4
REMARK    3  A    between atoms: _3  and  _6
REMARK    4  A    between atoms: _6  and  _7
REMARK    5  A    between atoms: _7  and  _8
REMARK    6  A    between atoms: _8  and  _9
REMARK    7  A    between atoms: _18  and  _20
REMARK    8  A    between atoms: _20  and  _21
REMARK    9  A    between atoms: _20  and  _23
REMARK   10  A    between atoms: _23  and  _24
REMARK   11  A    between atoms: _27  and  _29
REMARK   12  A    between atoms: _29  and  _30
REMARK   13  A    between atoms: _29  and  _32
REMARK   14  A    between atoms: _32  and  _33
REMARK   15  A    between atoms: _36  and  _38
REMARK   16  A    between atoms: _38  and  _39
REMARK   17  A    between atoms: _38  and  _41
REMARK   18  A    between atoms: _41  and  _42
REMARK   19  A    between atoms: _45  and  _47
REMARK   20  A    between atoms: _47  and  _48
REMARK   21  A    between atoms: _47  and  _50
REMARK   22  A    between atoms: _50  and  _51
REMARK   23  A    between atoms: _54  and  _56
REMARK   24  A    between atoms: _56  and  _57
REMARK   25  A    between atoms: _56  and  _59
REMARK   26  A    between atoms: _59  and  _60
REMARK   27  A    between atoms: _63  and  _65
REMARK   28  A    between atoms: _65  and  _66
REMARK   29  A    between atoms: _68  and  _70
REMARK   30  A    between atoms: _70  and  _71
REMARK   31  A    between atoms: _74  and  _76
REMARK   32  A    between atoms: _76  and  _77
REMARK   33  A    between atoms: _76  and  _79
REMARK   34  A    between atoms: _79  and  _80
REMARK   35  A    between atoms: _83  and  _85
REMARK   36  A    between atoms: _85  and  _86
REMARK   37  A    between atoms: _85  and  _88
REMARK   38  A    between atoms: _88  and  _89
REMARK   39  A    between atoms: _92  and  _94
REMARK   40  A    between atoms: _94  and  _95
REMARK   41  A    between atoms: _94  and  _97
REMARK   42  A    between atoms: _97  and  _98
REMARK   43  A    between atoms: _101  and  _103
REMARK   44  A    between atoms: _103  and  _104
REMARK   45  A    between atoms: _103  and  _106
REMARK   46  A    between atoms: _109  and  _111
REMARK   47  A    between atoms: _111  and  _112
REMARK   48  A    between atoms: _111  and  _114
REMARK   49  A    between atoms: _114  and  _115
REMARK   50  A    between atoms: _115  and  _116
REMARK   51  A    between atoms: _116  and  _117
REMARK   52  A    between atoms: _117  and  _118
REMARK   53  A    between atoms: _122  and  _124
REMARK   54  A    between atoms: _124  and  _125
REMARK   55  A    between atoms: _124  and  _127
REMARK   56  A    between atoms: _127  and  _128
REMARK   57  A    between atoms: _128  and  _129
REMARK   58  A    between atoms: _131  and  _133
REMARK   59  A    between atoms: _133  and  _134
REMARK   60  A    between atoms: _133  and  _136
REMARK   61  A    between atoms: _136  and  _137
REMARK   62  A    between atoms: _140  and  _142
REMARK   63  A    between atoms: _142  and  _143
REMARK   64  A    between atoms: _145  and  _147
REMARK   65  A    between atoms: _147  and  _148
REMARK   66  A    between atoms: _150  and  _152
REMARK   67  A    between atoms: _152  and  _153
REMARK   68  A    between atoms: _152  and  _155
REMARK   69  A    between atoms: _158  and  _160
REMARK   70  A    between atoms: _160  and  _161
REMARK   71  A    between atoms: _163  and  _165
REMARK   72  A    between atoms: _165  and  _166
REMARK   73  A    between atoms: _168  and  _170
REMARK   74  A    between atoms: _170  and  _171
REMARK   75  A    between atoms: _170  and  _173
REMARK   76  A    between atoms: _173  and  _174
REMARK   77  A    between atoms: _180  and  _182
REMARK   78  A    between atoms: _182  and  _183
REMARK   79  A    between atoms: _182  and  _185
REMARK   80  A    between atoms: _185  and  _186
REMARK   81  A    between atoms: _189  and  _191
REMARK   82  A    between atoms: _191  and  _192
REMARK   83  A    between atoms: _191  and  _194
REMARK   84  A    between atoms: _194  and  _195
REMARK   85  A    between atoms: _198  and  _200
REMARK   86  A    between atoms: _200  and  _201
REMARK   87  A    between atoms: _200  and  _203
REMARK   88  A    between atoms: _203  and  _204
REMARK   89  A    between atoms: _208  and  _209
REMARK   90  A    between atoms: _214  and  _216
REMARK   91  A    between atoms: _216  and  _217
REMARK   92  A    between atoms: _216  and  _219
REMARK   93  A    between atoms: _222  and  _224
REMARK   94  A    between atoms: _224  and  _225
REMARK   95  A    between atoms: _224  and  _227
REMARK   96  A    between atoms: _227  and  _228
REMARK   97  A    between atoms: _233  and  _235
REMARK   98  A    between atoms: _235  and  _236
REMARK   99  A    between atoms: _235  and  _238
REMARK  100  A    between atoms: _238  and  _239
REMARK  101  A    between atoms: _242  and  _244
REMARK  102  A    between atoms: _244  and  _245
REMARK  103  A    between atoms: _244  and  _247
REMARK  104  A    between atoms: _247  and  _248
REMARK  105  A    between atoms: _251  and  _253
REMARK  106  A    between atoms: _253  and  _254
REMARK  107  A    between atoms: _256  and  _258
REMARK  108  A    between atoms: _258  and  _259
REMARK  109  A    between atoms: _258  and  _261
REMARK  110  A    between atoms: _261  and  _262
REMARK  111  A    between atoms: _262  and  _263
REMARK  112  A    between atoms: _263  and  _264
REMARK  113  A    between atoms: _273  and  _275
REMARK  114  A    between atoms: _275  and  _276
REMARK  115  A    between atoms: _275  and  _278
REMARK  116  A    between atoms: _278  and  _279
REMARK  117  A    between atoms: _284  and  _286
REMARK  118  A    between atoms: _286  and  _287
REMARK  119  A    between atoms: _286  and  _289
REMARK  120  A    between atoms: _289  and  _290
REMARK  121  A    between atoms: _290  and  _291
REMARK  122  A    between atoms: _291  and  _292
REMARK  123  A    between atoms: _302  and  _303
REMARK  124  A    between atoms: _308  and  _310
REMARK  125  A    between atoms: _310  and  _311
REMARK  126  A    between atoms: _310  and  _313
REMARK  127  A    between atoms: _313  and  _314
REMARK  128  A    between atoms: _317  and  _319
REMARK  129  A    between atoms: _319  and  _320
REMARK  130  A    between atoms: _319  and  _322
REMARK  131  A    between atoms: _322  and  _323
REMARK  132  A    between atoms: _326  and  _328
REMARK  133  A    between atoms: _328  and  _329
REMARK  134  A    between atoms: _328  and  _331
REMARK  135  A    between atoms: _331  and  _332
REMARK  136  A    between atoms: _335  and  _337
REMARK  137  A    between atoms: _337  and  _338
REMARK  138  A    between atoms: _337  and  _340
REMARK  139  A    between atoms: _340  and  _341
REMARK  140  A    between atoms: _344  and  _346
REMARK  141  A    between atoms: _346  and  _347
REMARK  142  A    between atoms: _346  and  _349
REMARK  143  A    between atoms: _349  and  _350
REMARK  144  A    between atoms: _353  and  _355
REMARK  145  A    between atoms: _355  and  _356
REMARK  146  A    between atoms: _358  and  _360
REMARK  147  A    between atoms: _360  and  _361
REMARK  148  A    between atoms: _364  and  _366
REMARK  149  A    between atoms: _366  and  _367
REMARK  150  A    between atoms: _366  and  _369
REMARK  151  A    between atoms: _369  and  _370
REMARK  152  A    between atoms: _373  and  _375
REMARK  153  A    between atoms: _375  and  _376
REMARK  154  A    between atoms: _375  and  _378
REMARK  155  A    between atoms: _378  and  _379
REMARK  156  A    between atoms: _382  and  _384
REMARK  157  A    between atoms: _384  and  _385
REMARK  158  A    between atoms: _384  and  _387
REMARK  159  A    between atoms: _387  and  _388
REMARK  160  A    between atoms: _391  and  _393
REMARK  161  A    between atoms: _393  and  _394
REMARK  162  A    between atoms: _393  and  _396
REMARK  163  A    between atoms: _399  and  _401
REMARK  164  A    between atoms: _401  and  _402
REMARK  165  A    between atoms: _401  and  _404
REMARK  166  A    between atoms: _404  and  _405
REMARK  167  A    between atoms: _408  and  _410
REMARK  168  A    between atoms: _410  and  _411
REMARK  169  A    between atoms: _410  and  _413
REMARK  170  A    between atoms: _413  and  _414
REMARK  171  A    between atoms: _417  and  _419
REMARK  172  A    between atoms: _419  and  _420
REMARK  173  A    between atoms: _422  and  _424
REMARK  174  A    between atoms: _424  and  _425
REMARK  175  A    between atoms: _427  and  _429
REMARK  176  A    between atoms: _429  and  _430
REMARK  177  A    between atoms: _429  and  _432
REMARK  178  A    between atoms: _435  and  _437
REMARK  179  A    between atoms: _437  and  _438
REMARK  180  A    between atoms: _440  and  _442
REMARK  181  A    between atoms: _442  and  _443
REMARK  182  A    between atoms: _445  and  _447
REMARK  183  A    between atoms: _447  and  _448
REMARK  184  A    between atoms: _447  and  _450
REMARK  185  A    between atoms: _450  and  _451
REMARK  186  A    between atoms: _457  and  _459
REMARK  187  A    between atoms: _459  and  _460
REMARK  188  A    between atoms: _459  and  _462
REMARK  189  A    between atoms: _462  and  _463
REMARK  190  A    between atoms: _466  and  _468
REMARK  191  A    between atoms: _468  and  _469
REMARK  192  A    between atoms: _468  and  _471
REMARK  193  A    between atoms: _474  and  _476
REMARK  194  A    between atoms: _476  and  _477
REMARK  195  A    between atoms: _476  and  _479
REMARK  196  A    between atoms: _479  and  _480
REMARK  197  A    between atoms: _483  and  _485
REMARK  198  A    between atoms: _485  and  _486
REMARK  199  A    between atoms: _485  and  _488
REMARK  200  A    between atoms: _488  and  _489
REMARK  201  A    between atoms: _493  and  _494
REMARK  202  A    between atoms: _499  and  _501
REMARK  203  A    between atoms: _501  and  _502
REMARK  204  A    between atoms: _501  and  _504
REMARK  205  A    between atoms: _507  and  _509
REMARK  206  A    between atoms: _509  and  _510
REMARK  207  A    between atoms: _509  and  _512
REMARK  208  A    between atoms: _512  and  _513
REMARK  209  A    between atoms: _518  and  _520
REMARK  210  A    between atoms: _520  and  _521
REMARK  211  A    between atoms: _520  and  _523
REMARK  212  A    between atoms: _523  and  _524
REMARK  213  A    between atoms: _527  and  _529
REMARK  214  A    between atoms: _529  and  _530
REMARK  215  A    between atoms: _529  and  _532
REMARK  216  A    between atoms: _532  and  _533
REMARK  217  A    between atoms: _536  and  _538
REMARK  218  A    between atoms: _538  and  _539
REMARK  219  A    between atoms: _541  and  _543
REMARK  220  A    between atoms: _543  and  _544
REMARK  221  A    between atoms: _543  and  _546
REMARK  222  A    between atoms: _546  and  _547
REMARK  223  A    between atoms: _547  and  _548
REMARK  224  A    between atoms: _548  and  _549
REMARK                            x       y       z     vdW  Elec       q    Type
REMARK                         _______ _______ _______ _____ _____    ______ ____
ROOT
ATOM      1  O   HOH     1     -21.068   7.574  17.713  0.00  0.00    +0.000 OA
ENDROOT
TORSDOF 0
REMARK  Name = ../refined-set-2016/2o4l/2o4l_pocket.pdb
REMARK  224 active torsions:
REMARK  status: ('A' for Active; 'I' for Inactive)
REMARK    1  A    between atoms: _1  and  _3
REMARK    2  A    between atoms: _3  and  _4
REMARK    3  A    between atoms: _3  and  _6
REMARK    4  A    between atoms: _6  and  _7
REMARK    5  A    between atoms: _7  and  _8
REMARK    6  A    between atoms: _8  and  _9
REMARK    7  A    between atoms: _18  and  _20
REMARK    8  A    between atoms: _20  and  _21
REMARK    9  A    between atoms: _20  and  _23
REMARK   10  A    between atoms: _23  and  _24
REMARK   11  A    between atoms: _27  and  _29
REMARK   12  A    between atoms: _29  and  _30
REMARK   13  A    between atoms: _29  and  _32
REMARK   14  A    between atoms: _32  and  _33
REMARK   15  A    between atoms: _36  and  _38
REMARK   16  A    between atoms: _38  and  _39
REMARK   17  A    between atoms: _38  and  _41
REMARK   18  A    between atoms: _41  and  _42
REMARK   19  A    between atoms: _45  and  _47
REMARK   20  A    between atoms: _47  and  _48
REMARK   21  A    between atoms: _47  and  _50
REMARK   22  A    between atoms: _50  and  _51
REMARK   23  A    between atoms: _54  and  _56
REMARK   24  A    between atoms: _56  and  _57
REMARK   25  A    between atoms: _56  and  _59
REMARK   26  A    between atoms: _59  and  _60
REMARK   27  A    between atoms: _63  and  _65
REMARK   28  A    between atoms: _65  and  _66
REMARK   29  A    between atoms: _68  and  _70
REMARK   30  A    between atoms: _70  and  _71
REMARK   31  A    between atoms: _74  and  _76
REMARK   32  A    between atoms: _76  and  _77
REMARK   33  A    between atoms: _76  and  _79
REMARK   34  A    between atoms: _79  and  _80
REMARK   35  A    between atoms: _83  and  _85
REMARK   36  A    between atoms: _85  and  _86
REMARK   37  A    between atoms: _85  and  _88
REMARK   38  A    between atoms: _88  and  _89
REMARK   39  A    between atoms: _92  and  _94
REMARK   40  A    between atoms: _94  and  _95
REMARK   41  A    between atoms: _94  and  _97
REMARK   42  A    between atoms: _97  and  _98
REMARK   43  A    between atoms: _101  and  _103
REMARK   44  A    between atoms: _103  and  _104
REMARK   45  A    between atoms: _103  and  _106
REMARK   46  A    between atoms: _109  and  _111
REMARK   47  A    between atoms: _111  and  _112
REMARK   48  A    between atoms: _111  and  _114
REMARK   49  A    between atoms: _114  and  _115
REMARK   50  A    between atoms: _115  and  _116
REMARK   51  A    between atoms: _116  and  _117
REMARK   52  A    between atoms: _117  and  _118
REMARK   53  A    between atoms: _122  and  _124
REMARK   54  A    between atoms: _124  and  _125
REMARK   55  A    between atoms: _124  and  _127
REMARK   56  A    between atoms: _127  and  _128
REMARK   57  A    between atoms: _128  and  _129
REMARK   58  A    between atoms: _131  and  _133
REMARK   59  A    between atoms: _133  and  _134
REMARK   60  A    between atoms: _133  and  _136
REMARK   61  A    between atoms: _136  and  _137
REMARK   62  A    between atoms: _140  and  _142
REMARK   63  A    between atoms: _142  and  _143
REMARK   64  A    between atoms: _145  and  _147
REMARK   65  A    between atoms: _147  and  _148
REMARK   66  A    between atoms: _150  and  _152
REMARK   67  A    between atoms: _152  and  _153
REMARK   68  A    between atoms: _152  and  _155
REMARK   69  A    between atoms: _158  and  _160
REMARK   70  A    between atoms: _160  and  _161
REMARK   71  A    between atoms: _163  and  _165
REMARK   72  A    between atoms: _165  and  _166
REMARK   73  A    between atoms: _168  and  _170
REMARK   74  A    between atoms: _170  and  _171
REMARK   75  A    between atoms: _170  and  _173
REMARK   76  A    between atoms: _173  and  _174
REMARK   77  A    between atoms: _180  and  _182
REMARK   78  A    between atoms: _182  and  _183
REMARK   79  A    between atoms: _182  and  _185
REMARK   80  A    between atoms: _185  and  _186
REMARK   81  A    between atoms: _189  and  _191
REMARK   82  A    between atoms: _191  and  _192
REMARK   83  A    between atoms: _191  and  _194
REMARK   84  A    between atoms: _194  and  _195
REMARK   85  A    between atoms: _198  and  _200
REMARK   86  A    between atoms: _200  and  _201
REMARK   87  A    between atoms: _200  and  _203
REMARK   88  A    between atoms: _203  and  _204
REMARK   89  A    between atoms: _208  and  _209
REMARK   90  A    between atoms: _214  and  _216
REMARK   91  A    between atoms: _216  and  _217
REMARK   92  A    between atoms: _216  and  _219
REMARK   93  A    between atoms: _222  and  _224
REMARK   94  A    between atoms: _224  and  _225
REMARK   95  A    between atoms: _224  and  _227
REMARK   96  A    between atoms: _227  and  _228
REMARK   97  A    between atoms: _233  and  _235
REMARK   98  A    between atoms: _235  and  _236
REMARK   99  A    between atoms: _235  and  _238
REMARK  100  A    between atoms: _238  and  _239
REMARK  101  A    between atoms: _242  and  _244
REMARK  102  A    between atoms: _244  and  _245
REMARK  103  A    between atoms: _244  and  _247
REMARK  104  A    between atoms: _247  and  _248
REMARK  105  A    between atoms: _251  and  _253
REMARK  106  A    between atoms: _253  and  _254
REMARK  107  A    between atoms: _256  and  _258
REMARK  108  A    between atoms: _258  and  _259
REMARK  109  A    between atoms: _258  and  _261
REMARK  110  A    between atoms: _261  and  _262
REMARK  111  A    between atoms: _262  and  _263
REMARK  112  A    between atoms: _263  and  _264
REMARK  113  A    between atoms: _273  and  _275
REMARK  114  A    between atoms: _275  and  _276
REMARK  115  A    between atoms: _275  and  _278
REMARK  116  A    between atoms: _278  and  _279
REMARK  117  A    between atoms: _284  and  _286
REMARK  118  A    between atoms: _286  and  _287
REMARK  119  A    between atoms: _286  and  _289
REMARK  120  A    between atoms: _289  and  _290
REMARK  121  A    between atoms: _290  and  _291
REMARK  122  A    between atoms: _291  and  _292
REMARK  123  A    between atoms: _302  and  _303
REMARK  124  A    between atoms: _308  and  _310
REMARK  125  A    between atoms: _310  and  _311
REMARK  126  A    between atoms: _310  and  _313
REMARK  127  A    between atoms: _313  and  _314
REMARK  128  A    between atoms: _317  and  _319
REMARK  129  A    between atoms: _319  and  _320
REMARK  130  A    between atoms: _319  and  _322
REMARK  131  A    between atoms: _322  and  _323
REMARK  132  A    between atoms: _326  and  _328
REMARK  133  A    between atoms: _328  and  _329
REMARK  134  A    between atoms: _328  and  _331
REMARK  135  A    between atoms: _331  and  _332
REMARK  136  A    between atoms: _335  and  _337
REMARK  137  A    between atoms: _337  and  _338
REMARK  138  A    between atoms: _337  and  _340
REMARK  139  A    between atoms: _340  and  _341
REMARK  140  A    between atoms: _344  and  _346
REMARK  141  A    between atoms: _346  and  _347
REMARK  142  A    between atoms: _346  and  _349
REMARK  143  A    between atoms: _349  and  _350
REMARK  144  A    between atoms: _353  and  _355
REMARK  145  A    between atoms: _355  and  _356
REMARK  146  A    between atoms: _358  and  _360
REMARK  147  A    between atoms: _360  and  _361
REMARK  148  A    between atoms: _364  and  _366
REMARK  149  A    between atoms: _366  and  _367
REMARK  150  A    between atoms: _366  and  _369
REMARK  151  A    between atoms: _369  and  _370
REMARK  152  A    between atoms: _373  and  _375
REMARK  153  A    between atoms: _375  and  _376
REMARK  154  A    between atoms: _375  and  _378
REMARK  155  A    between atoms: _378  and  _379
REMARK  156  A    between atoms: _382  and  _384
REMARK  157  A    between atoms: _384  and  _385
REMARK  158  A    between atoms: _384  and  _387
REMARK  159  A    between atoms: _387  and  _388
REMARK  160  A    between atoms: _391  and  _393
REMARK  161  A    between atoms: _393  and  _394
REMARK  162  A    between atoms: _393  and  _396
REMARK  163  A    between atoms: _399  and  _401
REMARK  164  A    between atoms: _401  and  _402
REMARK  165  A    between atoms: _401  and  _404
REMARK  166  A    between atoms: _404  and  _405
REMARK  167  A    between atoms: _408  and  _410
REMARK  168  A    between atoms: _410  and  _411
REMARK  169  A    between atoms: _410  and  _413
REMARK  170  A    between atoms: _413  and  _414
REMARK  171  A    between atoms: _417  and  _419
REMARK  172  A    between atoms: _419  and  _420
REMARK  173  A    between atoms: _422  and  _424
REMARK  174  A    between atoms: _424  and  _425
REMARK  175  A    between atoms: _427  and  _429
REMARK  176  A    between atoms: _429  and  _430
REMARK  177  A    between atoms: _429  and  _432
REMARK  178  A    between atoms: _435  and  _437
REMARK  179  A    between atoms: _437  and  _438
REMARK  180  A    between atoms: _440  and  _442
REMARK  181  A    between atoms: _442  and  _443
REMARK  182  A    between atoms: _445  and  _447
REMARK  183  A    between atoms: _447  and  _448
REMARK  184  A    between atoms: _447  and  _450
REMARK  185  A    between atoms: _450  and  _451
REMARK  186  A    between atoms: _457  and  _459
REMARK  187  A    between atoms: _459  and  _460
REMARK  188  A    between atoms: _459  and  _462
REMARK  189  A    between atoms: _462  and  _463
REMARK  190  A    between atoms: _466  and  _468
REMARK  191  A    between atoms: _468  and  _469
REMARK  192  A    between atoms: _468  and  _471
REMARK  193  A    between atoms: _474  and  _476
REMARK  194  A    between atoms: _476  and  _477
REMARK  195  A    between atoms: _476  and  _479
REMARK  196  A    between atoms: _479  and  _480
REMARK  197  A    between atoms: _483  and  _485
REMARK  198  A    between atoms: _485  and  _486
REMARK  199  A    between atoms: _485  and  _488
REMARK  200  A    between atoms: _488  and  _489
REMARK  201  A    between atoms: _493  and  _494
REMARK  202  A    between atoms: _499  and  _501
REMARK  203  A    between atoms: _501  and  _502
REMARK  204  A    between atoms: _501  and  _504
REMARK  205  A    between atoms: _507  and  _509
REMARK  206  A    between atoms: _509  and  _510
REMARK  207  A    between atoms: _509  and  _512
REMARK  208  A    between atoms: _512  and  _513
REMARK  209  A    between atoms: _518  and  _520
REMARK  210  A    between atoms: _520  and  _521
REMARK  211  A    between atoms: _520  and  _523
REMARK  212  A    between atoms: _523  and  _524
REMARK  213  A    between atoms: _527  and  _529
REMARK  214  A    between atoms: _529  and  _530
REMARK  215  A    between atoms: _529  and  _532
REMARK  216  A    between atoms: _532  and  _533
REMARK  217  A    between atoms: _536  and  _538
REMARK  218  A    between atoms: _538  and  _539
REMARK  219  A    between atoms: _541  and  _543
REMARK  220  A    between atoms: _543  and  _544
REMARK  221  A    between atoms: _543  and  _546
REMARK  222  A    between atoms: _546  and  _547
REMARK  223  A    between atoms: _547  and  _548
REMARK  224  A    between atoms: _548  and  _549
REMARK                            x       y       z     vdW  Elec       q    Type
REMARK                         _______ _______ _______ _____ _____    ______ ____
ROOT
ATOM      1  O   HOH     1     -26.566  17.044  16.097  0.00  0.00    +0.000 OA
ENDROOT
TORSDOF 0
REMARK  Name = ../refined-set-2016/2o4l/2o4l_pocket.pdb
REMARK  224 active torsions:
REMARK  status: ('A' for Active; 'I' for Inactive)
REMARK    1  A    between atoms: _1  and  _3
REMARK    2  A    between atoms: _3  and  _4
REMARK    3  A    between atoms: _3  and  _6
REMARK    4  A    between atoms: _6  and  _7
REMARK    5  A    between atoms: _7  and  _8
REMARK    6  A    between atoms: _8  and  _9
REMARK    7  A    between atoms: _18  and  _20
REMARK    8  A    between atoms: _20  and  _21
REMARK    9  A    between atoms: _20  and  _23
REMARK   10  A    between atoms: _23  and  _24
REMARK   11  A    between atoms: _27  and  _29
REMARK   12  A    between atoms: _29  and  _30
REMARK   13  A    between atoms: _29  and  _32
REMARK   14  A    between atoms: _32  and  _33
REMARK   15  A    between atoms: _36  and  _38
REMARK   16  A    between atoms: _38  and  _39
REMARK   17  A    between atoms: _38  and  _41
REMARK   18  A    between atoms: _41  and  _42
REMARK   19  A    between atoms: _45  and  _47
REMARK   20  A    between atoms: _47  and  _48
REMARK   21  A    between atoms: _47  and  _50
REMARK   22  A    between atoms: _50  and  _51
REMARK   23  A    between atoms: _54  and  _56
REMARK   24  A    between atoms: _56  and  _57
REMARK   25  A    between atoms: _56  and  _59
REMARK   26  A    between atoms: _59  and  _60
REMARK   27  A    between atoms: _63  and  _65
REMARK   28  A    between atoms: _65  and  _66
REMARK   29  A    between atoms: _68  and  _70
REMARK   30  A    between atoms: _70  and  _71
REMARK   31  A    between atoms: _74  and  _76
REMARK   32  A    between atoms: _76  and  _77
REMARK   33  A    between atoms: _76  and  _79
REMARK   34  A    between atoms: _79  and  _80
REMARK   35  A    between atoms: _83  and  _85
REMARK   36  A    between atoms: _85  and  _86
REMARK   37  A    between atoms: _85  and  _88
REMARK   38  A    between atoms: _88  and  _89
REMARK   39  A    between atoms: _92  and  _94
REMARK   40  A    between atoms: _94  and  _95
REMARK   41  A    between atoms: _94  and  _97
REMARK   42  A    between atoms: _97  and  _98
REMARK   43  A    between atoms: _101  and  _103
REMARK   44  A    between atoms: _103  and  _104
REMARK   45  A    between atoms: _103  and  _106
REMARK   46  A    between atoms: _109  and  _111
REMARK   47  A    between atoms: _111  and  _112
REMARK   48  A    between atoms: _111  and  _114
REMARK   49  A    between atoms: _114  and  _115
REMARK   50  A    between atoms: _115  and  _116
REMARK   51  A    between atoms: _116  and  _117
REMARK   52  A    between atoms: _117  and  _118
REMARK   53  A    between atoms: _122  and  _124
REMARK   54  A    between atoms: _124  and  _125
REMARK   55  A    between atoms: _124  and  _127
REMARK   56  A    between atoms: _127  and  _128
REMARK   57  A    between atoms: _128  and  _129
REMARK   58  A    between atoms: _131  and  _133
REMARK   59  A    between atoms: _133  and  _134
REMARK   60  A    between atoms: _133  and  _136
REMARK   61  A    between atoms: _136  and  _137
REMARK   62  A    between atoms: _140  and  _142
REMARK   63  A    between atoms: _142  and  _143
REMARK   64  A    between atoms: _145  and  _147
REMARK   65  A    between atoms: _147  and  _148
REMARK   66  A    between atoms: _150  and  _152
REMARK   67  A    between atoms: _152  and  _153
REMARK   68  A    between atoms: _152  and  _155
REMARK   69  A    between atoms: _158  and  _160
REMARK   70  A    between atoms: _160  and  _161
REMARK   71  A    between atoms: _163  and  _165
REMARK   72  A    between atoms: _165  and  _166
REMARK   73  A    between atoms: _168  and  _170
REMARK   74  A    between atoms: _170  and  _171
REMARK   75  A    between atoms: _170  and  _173
REMARK   76  A    between atoms: _173  and  _174
REMARK   77  A    between atoms: _180  and  _182
REMARK   78  A    between atoms: _182  and  _183
REMARK   79  A    between atoms: _182  and  _185
REMARK   80  A    between atoms: _185  and  _186
REMARK   81  A    between atoms: _189  and  _191
REMARK   82  A    between atoms: _191  and  _192
REMARK   83  A    between atoms: _191  and  _194
REMARK   84  A    between atoms: _194  and  _195
REMARK   85  A    between atoms: _198  and  _200
REMARK   86  A    between atoms: _200  and  _201
REMARK   87  A    between atoms: _200  and  _203
REMARK   88  A    between atoms: _203  and  _204
REMARK   89  A    between atoms: _208  and  _209
REMARK   90  A    between atoms: _214  and  _216
REMARK   91  A    between atoms: _216  and  _217
REMARK   92  A    between atoms: _216  and  _219
REMARK   93  A    between atoms: _222  and  _224
REMARK   94  A    between atoms: _224  and  _225
REMARK   95  A    between atoms: _224  and  _227
REMARK   96  A    between atoms: _227  and  _228
REMARK   97  A    between atoms: _233  and  _235
REMARK   98  A    between atoms: _235  and  _236
REMARK   99  A    between atoms: _235  and  _238
REMARK  100  A    between atoms: _238  and  _239
REMARK  101  A    between atoms: _242  and  _244
REMARK  102  A    between atoms: _244  and  _245
REMARK  103  A    between atoms: _244  and  _247
REMARK  104  A    between atoms: _247  and  _248
REMARK  105  A    between atoms: _251  and  _253
REMARK  106  A    between atoms: _253  and  _254
REMARK  107  A    between atoms: _256  and  _258
REMARK  108  A    between atoms: _258  and  _259
REMARK  109  A    between atoms: _258  and  _261
REMARK  110  A    between atoms: _261  and  _262
REMARK  111  A    between atoms: _262  and  _263
REMARK  112  A    between atoms: _263  and  _264
REMARK  113  A    between atoms: _273  and  _275
REMARK  114  A    between atoms: _275  and  _276
REMARK  115  A    between atoms: _275  and  _278
REMARK  116  A    between atoms: _278  and  _279
REMARK  117  A    between atoms: _284  and  _286
REMARK  118  A    between atoms: _286  and  _287
REMARK  119  A    between atoms: _286  and  _289
REMARK  120  A    between atoms: _289  and  _290
REMARK  121  A    between atoms: _290  and  _291
REMARK  122  A    between atoms: _291  and  _292
REMARK  123  A    between atoms: _302  and  _303
REMARK  124  A    between atoms: _308  and  _310
REMARK  125  A    between atoms: _310  and  _311
REMARK  126  A    between atoms: _310  and  _313
REMARK  127  A    between atoms: _313  and  _314
REMARK  128  A    between atoms: _317  and  _319
REMARK  129  A    between atoms: _319  and  _320
REMARK  130  A    between atoms: _319  and  _322
REMARK  131  A    between atoms: _322  and  _323
REMARK  132  A    between atoms: _326  and  _328
REMARK  133  A    between atoms: _328  and  _329
REMARK  134  A    between atoms: _328  and  _331
REMARK  135  A    between atoms: _331  and  _332
REMARK  136  A    between atoms: _335  and  _337
REMARK  137  A    between atoms: _337  and  _338
REMARK  138  A    between atoms: _337  and  _340
REMARK  139  A    between atoms: _340  and  _341
REMARK  140  A    between atoms: _344  and  _346
REMARK  141  A    between atoms: _346  and  _347
REMARK  142  A    between atoms: _346  and  _349
REMARK  143  A    between atoms: _349  and  _350
REMARK  144  A    between atoms: _353  and  _355
REMARK  145  A    between atoms: _355  and  _356
REMARK  146  A    between atoms: _358  and  _360
REMARK  147  A    between atoms: _360  and  _361
REMARK  148  A    between atoms: _364  and  _366
REMARK  149  A    between atoms: _366  and  _367
REMARK  150  A    between atoms: _366  and  _369
REMARK  151  A    between atoms: _369  and  _370
REMARK  152  A    between atoms: _373  and  _375
REMARK  153  A    between atoms: _375  and  _376
REMARK  154  A    between atoms: _375  and  _378
REMARK  155  A    between atoms: _378  and  _379
REMARK  156  A    between atoms: _382  and  _384
REMARK  157  A    between atoms: _384  and  _385
REMARK  158  A    between atoms: _384  and  _387
REMARK  159  A    between atoms: _387  and  _388
REMARK  160  A    between atoms: _391  and  _393
REMARK  161  A    between atoms: _393  and  _394
REMARK  162  A    between atoms: _393  and  _396
REMARK  163  A    between atoms: _399  and  _401
REMARK  164  A    between atoms: _401  and  _402
REMARK  165  A    between atoms: _401  and  _404
REMARK  166  A    between atoms: _404  and  _405
REMARK  167  A    between atoms: _408  and  _410
REMARK  168  A    between atoms: _410  and  _411
REMARK  169  A    between atoms: _410  and  _413
REMARK  170  A    between atoms: _413  and  _414
REMARK  171  A    between atoms: _417  and  _419
REMARK  172  A    between atoms: _419  and  _420
REMARK  173  A    between atoms: _422  and  _424
REMARK  174  A    between atoms: _424  and  _425
REMARK  175  A    between atoms: _427  and  _429
REMARK  176  A    between atoms: _429  and  _430
REMARK  177  A    between atoms: _429  and  _432
REMARK  178  A    between atoms: _435  and  _437
REMARK  179  A    between atoms: _437  and  _438
REMARK  180  A    between atoms: _440  and  _442
REMARK  181  A    between atoms: _442  and  _443
REMARK  182  A    between atoms: _445  and  _447
REMARK  183  A    between atoms: _447  and  _448
REMARK  184  A    between atoms: _447  and  _450
REMARK  185  A    between atoms: _450  and  _451
REMARK  186  A    between atoms: _457  and  _459
REMARK  187  A    between atoms: _459  and  _460
REMARK  188  A    between atoms: _459  and  _462
REMARK  189  A    between atoms: _462  and  _463
REMARK  190  A    between atoms: _466  and  _468
REMARK  191  A    between atoms: _468  and  _469
REMARK  192  A    between atoms: _468  and  _471
REMARK  193  A    between atoms: _474  and  _476
REMARK  194  A    between atoms: _476  and  _477
REMARK  195  A    between atoms: _476  and  _479
REMARK  196  A    between atoms: _479  and  _480
REMARK  197  A    between atoms: _483  and  _485
REMARK  198  A    between atoms: _485  and  _486
REMARK  199  A    between atoms: _485  and  _488
REMARK  200  A    between atoms: _488  and  _489
REMARK  201  A    between atoms: _493  and  _494
REMARK  202  A    between atoms: _499  and  _501
REMARK  203  A    between atoms: _501  and  _502
REMARK  204  A    between atoms: _501  and  _504
REMARK  205  A    between atoms: _507  and  _509
REMARK  206  A    between atoms: _509  and  _510
REMARK  207  A    between atoms: _509  and  _512
REMARK  208  A    between atoms: _512  and  _513
REMARK  209  A    between atoms: _518  and  _520
REMARK  210  A    between atoms: _520  and  _521
REMARK  211  A    between atoms: _520  and  _523
REMARK  212  A    between atoms: _523  and  _524
REMARK  213  A    between atoms: _527  and  _529
REMARK  214  A    between atoms: _529  and  _530
REMARK  215  A    between atoms: _529  and  _532
REMARK  216  A    between atoms: _532  and  _533
REMARK  217  A    between atoms: _536  and  _538
REMARK  218  A    between atoms: _538  and  _539
REMARK  219  A    between atoms: _541  and  _543
REMARK  220  A    between atoms: _543  and  _544
REMARK  221  A    between atoms: _543  and  _546
REMARK  222  A    between atoms: _546  and  _547
REMARK  223  A    between atoms: _547  and  _548
REMARK  224  A    between atoms: _548  and  _549
REMARK                            x       y       z     vdW  Elec       q    Type
REMARK                         _______ _______ _______ _____ _____    ______ ____
ROOT
ATOM      1  O   HOH     1     -25.978  12.784  14.740  0.00  0.00    +0.000 OA
ENDROOT
TORSDOF 0
REMARK  Name = ../refined-set-2016/2o4l/2o4l_pocket.pdb
REMARK  224 active torsions:
REMARK  status: ('A' for Active; 'I' for Inactive)
REMARK    1  A    between atoms: _1  and  _3
REMARK    2  A    between atoms: _3  and  _4
REMARK    3  A    between atoms: _3  and  _6
REMARK    4  A    between atoms: _6  and  _7
REMARK    5  A    between atoms: _7  and  _8
REMARK    6  A    between atoms: _8  and  _9
REMARK    7  A    between atoms: _18  and  _20
REMARK    8  A    between atoms: _20  and  _21
REMARK    9  A    between atoms: _20  and  _23
REMARK   10  A    between atoms: _23  and  _24
REMARK   11  A    between atoms: _27  and  _29
REMARK   12  A    between atoms: _29  and  _30
REMARK   13  A    between atoms: _29  and  _32
REMARK   14  A    between atoms: _32  and  _33
REMARK   15  A    between atoms: _36  and  _38
REMARK   16  A    between atoms: _38  and  _39
REMARK   17  A    between atoms: _38  and  _41
REMARK   18  A    between atoms: _41  and  _42
REMARK   19  A    between atoms: _45  and  _47
REMARK   20  A    between atoms: _47  and  _48
REMARK   21  A    between atoms: _47  and  _50
REMARK   22  A    between atoms: _50  and  _51
REMARK   23  A    between atoms: _54  and  _56
REMARK   24  A    between atoms: _56  and  _57
REMARK   25  A    between atoms: _56  and  _59
REMARK   26  A    between atoms: _59  and  _60
REMARK   27  A    between atoms: _63  and  _65
REMARK   28  A    between atoms: _65  and  _66
REMARK   29  A    between atoms: _68  and  _70
REMARK   30  A    between atoms: _70  and  _71
REMARK   31  A    between atoms: _74  and  _76
REMARK   32  A    between atoms: _76  and  _77
REMARK   33  A    between atoms: _76  and  _79
REMARK   34  A    between atoms: _79  and  _80
REMARK   35  A    between atoms: _83  and  _85
REMARK   36  A    between atoms: _85  and  _86
REMARK   37  A    between atoms: _85  and  _88
REMARK   38  A    between atoms: _88  and  _89
REMARK   39  A    between atoms: _92  and  _94
REMARK   40  A    between atoms: _94  and  _95
REMARK   41  A    between atoms: _94  and  _97
REMARK   42  A    between atoms: _97  and  _98
REMARK   43  A    between atoms: _101  and  _103
REMARK   44  A    between atoms: _103  and  _104
REMARK   45  A    between atoms: _103  and  _106
REMARK   46  A    between atoms: _109  and  _111
REMARK   47  A    between atoms: _111  and  _112
REMARK   48  A    between atoms: _111  and  _114
REMARK   49  A    between atoms: _114  and  _115
REMARK   50  A    between atoms: _115  and  _116
REMARK   51  A    between atoms: _116  and  _117
REMARK   52  A    between atoms: _117  and  _118
REMARK   53  A    between atoms: _122  and  _124
REMARK   54  A    between atoms: _124  and  _125
REMARK   55  A    between atoms: _124  and  _127
REMARK   56  A    between atoms: _127  and  _128
REMARK   57  A    between atoms: _128  and  _129
REMARK   58  A    between atoms: _131  and  _133
REMARK   59  A    between atoms: _133  and  _134
REMARK   60  A    between atoms: _133  and  _136
REMARK   61  A    between atoms: _136  and  _137
REMARK   62  A    between atoms: _140  and  _142
REMARK   63  A    between atoms: _142  and  _143
REMARK   64  A    between atoms: _145  and  _147
REMARK   65  A    between atoms: _147  and  _148
REMARK   66  A    between atoms: _150  and  _152
REMARK   67  A    between atoms: _152  and  _153
REMARK   68  A    between atoms: _152  and  _155
REMARK   69  A    between atoms: _158  and  _160
REMARK   70  A    between atoms: _160  and  _161
REMARK   71  A    between atoms: _163  and  _165
REMARK   72  A    between atoms: _165  and  _166
REMARK   73  A    between atoms: _168  and  _170
REMARK   74  A    between atoms: _170  and  _171
REMARK   75  A    between atoms: _170  and  _173
REMARK   76  A    between atoms: _173  and  _174
REMARK   77  A    between atoms: _180  and  _182
REMARK   78  A    between atoms: _182  and  _183
REMARK   79  A    between atoms: _182  and  _185
REMARK   80  A    between atoms: _185  and  _186
REMARK   81  A    between atoms: _189  and  _191
REMARK   82  A    between atoms: _191  and  _192
REMARK   83  A    between atoms: _191  and  _194
REMARK   84  A    between atoms: _194  and  _195
REMARK   85  A    between atoms: _198  and  _200
REMARK   86  A    between atoms: _200  and  _201
REMARK   87  A    between atoms: _200  and  _203
REMARK   88  A    between atoms: _203  and  _204
REMARK   89  A    between atoms: _208  and  _209
REMARK   90  A    between atoms: _214  and  _216
REMARK   91  A    between atoms: _216  and  _217
REMARK   92  A    between atoms: _216  and  _219
REMARK   93  A    between atoms: _222  and  _224
REMARK   94  A    between atoms: _224  and  _225
REMARK   95  A    between atoms: _224  and  _227
REMARK   96  A    between atoms: _227  and  _228
REMARK   97  A    between atoms: _233  and  _235
REMARK   98  A    between atoms: _235  and  _236
REMARK   99  A    between atoms: _235  and  _238
REMARK  100  A    between atoms: _238  and  _239
REMARK  101  A    between atoms: _242  and  _244
REMARK  102  A    between atoms: _244  and  _245
REMARK  103  A    between atoms: _244  and  _247
REMARK  104  A    between atoms: _247  and  _248
REMARK  105  A    between atoms: _251  and  _253
REMARK  106  A    between atoms: _253  and  _254
REMARK  107  A    between atoms: _256  and  _258
REMARK  108  A    between atoms: _258  and  _259
REMARK  109  A    between atoms: _258  and  _261
REMARK  110  A    between atoms: _261  and  _262
REMARK  111  A    between atoms: _262  and  _263
REMARK  112  A    between atoms: _263  and  _264
REMARK  113  A    between atoms: _273  and  _275
REMARK  114  A    between atoms: _275  and  _276
REMARK  115  A    between atoms: _275  and  _278
REMARK  116  A    between atoms: _278  and  _279
REMARK  117  A    between atoms: _284  and  _286
REMARK  118  A    between atoms: _286  and  _287
REMARK  119  A    between atoms: _286  and  _289
REMARK  120  A    between atoms: _289  and  _290
REMARK  121  A    between atoms: _290  and  _291
REMARK  122  A    between atoms: _291  and  _292
REMARK  123  A    between atoms: _302  and  _303
REMARK  124  A    between atoms: _308  and  _310
REMARK  125  A    between atoms: _310  and  _311
REMARK  126  A    between atoms: _310  and  _313
REMARK  127  A    between atoms: _313  and  _314
REMARK  128  A    between atoms: _317  and  _319
REMARK  129  A    between atoms: _319  and  _320
REMARK  130  A    between atoms: _319  and  _322
REMARK  131  A    between atoms: _322  and  _323
REMARK  132  A    between atoms: _326  and  _328
REMARK  133  A    between atoms: _328  and  _329
REMARK  134  A    between atoms: _328  and  _331
REMARK  135  A    between atoms: _331  and  _332
REMARK  136  A    between atoms: _335  and  _337
REMARK  137  A    between atoms: _337  and  _338
REMARK  138  A    between atoms: _337  and  _340
REMARK  139  A    between atoms: _340  and  _341
REMARK  140  A    between atoms: _344  and  _346
REMARK  141  A    between atoms: _346  and  _347
REMARK  142  A    between atoms: _346  and  _349
REMARK  143  A    between atoms: _349  and  _350
REMARK  144  A    between atoms: _353  and  _355
REMARK  145  A    between atoms: _355  and  _356
REMARK  146  A    between atoms: _358  and  _360
REMARK  147  A    between atoms: _360  and  _361
REMARK  148  A    between atoms: _364  and  _366
REMARK  149  A    between atoms: _366  and  _367
REMARK  150  A    between atoms: _366  and  _369
REMARK  151  A    between atoms: _369  and  _370
REMARK  152  A    between atoms: _373  and  _375
REMARK  153  A    between atoms: _375  and  _376
REMARK  154  A    between atoms: _375  and  _378
REMARK  155  A    between atoms: _378  and  _379
REMARK  156  A    between atoms: _382  and  _384
REMARK  157  A    between atoms: _384  and  _385
REMARK  158  A    between atoms: _384  and  _387
REMARK  159  A    between atoms: _387  and  _388
REMARK  160  A    between atoms: _391  and  _393
REMARK  161  A    between atoms: _393  and  _394
REMARK  162  A    between atoms: _393  and  _396
REMARK  163  A    between atoms: _399  and  _401
REMARK  164  A    between atoms: _401  and  _402
REMARK  165  A    between atoms: _401  and  _404
REMARK  166  A    between atoms: _404  and  _405
REMARK  167  A    between atoms: _408  and  _410
REMARK  168  A    between atoms: _410  and  _411
REMARK  169  A    between atoms: _410  and  _413
REMARK  170  A    between atoms: _413  and  _414
REMARK  171  A    between atoms: _417  and  _419
REMARK  172  A    between atoms: _419  and  _420
REMARK  173  A    between atoms: _422  and  _424
REMARK  174  A    between atoms: _424  and  _425
REMARK  175  A    between atoms: _427  and  _429
REMARK  176  A    between atoms: _429  and  _430
REMARK  177  A    between atoms: _429  and  _432
REMARK  178  A    between atoms: _435  and  _437
REMARK  179  A    between atoms: _437  and  _438
REMARK  180  A    between atoms: _440  and  _442
REMARK  181  A    between atoms: _442  and  _443
REMARK  182  A    between atoms: _445  and  _447
REMARK  183  A    between atoms: _447  and  _448
REMARK  184  A    between atoms: _447  and  _450
REMARK  185  A    between atoms: _450  and  _451
REMARK  186  A    between atoms: _457  and  _459
REMARK  187  A    between atoms: _459  and  _460
REMARK  188  A    between atoms: _459  and  _462
REMARK  189  A    between atoms: _462  and  _463
REMARK  190  A    between atoms: _466  and  _468
REMARK  191  A    between atoms: _468  and  _469
REMARK  192  A    between atoms: _468  and  _471
REMARK  193  A    between atoms: _474  and  _476
REMARK  194  A    between atoms: _476  and  _477
REMARK  195  A    between atoms: _476  and  _479
REMARK  196  A    between atoms: _479  and  _480
REMARK  197  A    between atoms: _483  and  _485
REMARK  198  A    between atoms: _485  and  _486
REMARK  199  A    between atoms: _485  and  _488
REMARK  200  A    between atoms: _488  and  _489
REMARK  201  A    between atoms: _493  and  _494
REMARK  202  A    between atoms: _499  and  _501
REMARK  203  A    between atoms: _501  and  _502
REMARK  204  A    between atoms: _501  and  _504
REMARK  205  A    between atoms: _507  and  _509
REMARK  206  A    between atoms: _509  and  _510
REMARK  207  A    between atoms: _509  and  _512
REMARK  208  A    between atoms: _512  and  _513
REMARK  209  A    between atoms: _518  and  _520
REMARK  210  A    between atoms: _520  and  _521
REMARK  211  A    between atoms: _520  and  _523
REMARK  212  A    between atoms: _523  and  _524
REMARK  213  A    between atoms: _527  and  _529
REMARK  214  A    between atoms: _529  and  _530
REMARK  215  A    between atoms: _529  and  _532
REMARK  216  A    between atoms: _532  and  _533
REMARK  217  A    between atoms: _536  and  _538
REMARK  218  A    between atoms: _538  and  _539
REMARK  219  A    between atoms: _541  and  _543
REMARK  220  A    between atoms: _543  and  _544
REMARK  221  A    between atoms: _543  and  _546
REMARK  222  A    between atoms: _546  and  _547
REMARK  223  A    between atoms: _547  and  _548
REMARK  224  A    between atoms: _548  and  _549
REMARK                            x       y       z     vdW  Elec       q    Type
REMARK                         _______ _______ _______ _____ _____    ______ ____
ROOT
ATOM      1  O   HOH     1      -6.205  21.542  10.980  0.00  0.00    +0.000 OA
ENDROOT
TORSDOF 0
REMARK  Name = ../refined-set-2016/2o4l/2o4l_pocket.pdb
REMARK  224 active torsions:
REMARK  status: ('A' for Active; 'I' for Inactive)
REMARK    1  A    between atoms: _1  and  _3
REMARK    2  A    between atoms: _3  and  _4
REMARK    3  A    between atoms: _3  and  _6
REMARK    4  A    between atoms: _6  and  _7
REMARK    5  A    between atoms: _7  and  _8
REMARK    6  A    between atoms: _8  and  _9
REMARK    7  A    between atoms: _18  and  _20
REMARK    8  A    between atoms: _20  and  _21
REMARK    9  A    between atoms: _20  and  _23
REMARK   10  A    between atoms: _23  and  _24
REMARK   11  A    between atoms: _27  and  _29
REMARK   12  A    between atoms: _29  and  _30
REMARK   13  A    between atoms: _29  and  _32
REMARK   14  A    between atoms: _32  and  _33
REMARK   15  A    between atoms: _36  and  _38
REMARK   16  A    between atoms: _38  and  _39
REMARK   17  A    between atoms: _38  and  _41
REMARK   18  A    between atoms: _41  and  _42
REMARK   19  A    between atoms: _45  and  _47
REMARK   20  A    between atoms: _47  and  _48
REMARK   21  A    between atoms: _47  and  _50
REMARK   22  A    between atoms: _50  and  _51
REMARK   23  A    between atoms: _54  and  _56
REMARK   24  A    between atoms: _56  and  _57
REMARK   25  A    between atoms: _56  and  _59
REMARK   26  A    between atoms: _59  and  _60
REMARK   27  A    between atoms: _63  and  _65
REMARK   28  A    between atoms: _65  and  _66
REMARK   29  A    between atoms: _68  and  _70
REMARK   30  A    between atoms: _70  and  _71
REMARK   31  A    between atoms: _74  and  _76
REMARK   32  A    between atoms: _76  and  _77
REMARK   33  A    between atoms: _76  and  _79
REMARK   34  A    between atoms: _79  and  _80
REMARK   35  A    between atoms: _83  and  _85
REMARK   36  A    between atoms: _85  and  _86
REMARK   37  A    between atoms: _85  and  _88
REMARK   38  A    between atoms: _88  and  _89
REMARK   39  A    between atoms: _92  and  _94
REMARK   40  A    between atoms: _94  and  _95
REMARK   41  A    between atoms: _94  and  _97
REMARK   42  A    between atoms: _97  and  _98
REMARK   43  A    between atoms: _101  and  _103
REMARK   44  A    between atoms: _103  and  _104
REMARK   45  A    between atoms: _103  and  _106
REMARK   46  A    between atoms: _109  and  _111
REMARK   47  A    between atoms: _111  and  _112
REMARK   48  A    between atoms: _111  and  _114
REMARK   49  A    between atoms: _114  and  _115
REMARK   50  A    between atoms: _115  and  _116
REMARK   51  A    between atoms: _116  and  _117
REMARK   52  A    between atoms: _117  and  _118
REMARK   53  A    between atoms: _122  and  _124
REMARK   54  A    between atoms: _124  and  _125
REMARK   55  A    between atoms: _124  and  _127
REMARK   56  A    between atoms: _127  and  _128
REMARK   57  A    between atoms: _128  and  _129
REMARK   58  A    between atoms: _131  and  _133
REMARK   59  A    between atoms: _133  and  _134
REMARK   60  A    between atoms: _133  and  _136
REMARK   61  A    between atoms: _136  and  _137
REMARK   62  A    between atoms: _140  and  _142
REMARK   63  A    between atoms: _142  and  _143
REMARK   64  A    between atoms: _145  and  _147
REMARK   65  A    between atoms: _147  and  _148
REMARK   66  A    between atoms: _150  and  _152
REMARK   67  A    between atoms: _152  and  _153
REMARK   68  A    between atoms: _152  and  _155
REMARK   69  A    between atoms: _158  and  _160
REMARK   70  A    between atoms: _160  and  _161
REMARK   71  A    between atoms: _163  and  _165
REMARK   72  A    between atoms: _165  and  _166
REMARK   73  A    between atoms: _168  and  _170
REMARK   74  A    between atoms: _170  and  _171
REMARK   75  A    between atoms: _170  and  _173
REMARK   76  A    between atoms: _173  and  _174
REMARK   77  A    between atoms: _180  and  _182
REMARK   78  A    between atoms: _182  and  _183
REMARK   79  A    between atoms: _182  and  _185
REMARK   80  A    between atoms: _185  and  _186
REMARK   81  A    between atoms: _189  and  _191
REMARK   82  A    between atoms: _191  and  _192
REMARK   83  A    between atoms: _191  and  _194
REMARK   84  A    between atoms: _194  and  _195
REMARK   85  A    between atoms: _198  and  _200
REMARK   86  A    between atoms: _200  and  _201
REMARK   87  A    between atoms: _200  and  _203
REMARK   88  A    between atoms: _203  and  _204
REMARK   89  A    between atoms: _208  and  _209
REMARK   90  A    between atoms: _214  and  _216
REMARK   91  A    between atoms: _216  and  _217
REMARK   92  A    between atoms: _216  and  _219
REMARK   93  A    between atoms: _222  and  _224
REMARK   94  A    between atoms: _224  and  _225
REMARK   95  A    between atoms: _224  and  _227
REMARK   96  A    between atoms: _227  and  _228
REMARK   97  A    between atoms: _233  and  _235
REMARK   98  A    between atoms: _235  and  _236
REMARK   99  A    between atoms: _235  and  _238
REMARK  100  A    between atoms: _238  and  _239
REMARK  101  A    between atoms: _242  and  _244
REMARK  102  A    between atoms: _244  and  _245
REMARK  103  A    between atoms: _244  and  _247
REMARK  104  A    between atoms: _247  and  _248
REMARK  105  A    between atoms: _251  and  _253
REMARK  106  A    between atoms: _253  and  _254
REMARK  107  A    between atoms: _256  and  _258
REMARK  108  A    between atoms: _258  and  _259
REMARK  109  A    between atoms: _258  and  _261
REMARK  110  A    between atoms: _261  and  _262
REMARK  111  A    between atoms: _262  and  _263
REMARK  112  A    between atoms: _263  and  _264
REMARK  113  A    between atoms: _273  and  _275
REMARK  114  A    between atoms: _275  and  _276
REMARK  115  A    between atoms: _275  and  _278
REMARK  116  A    between atoms: _278  and  _279
REMARK  117  A    between atoms: _284  and  _286
REMARK  118  A    between atoms: _286  and  _287
REMARK  119  A    between atoms: _286  and  _289
REMARK  120  A    between atoms: _289  and  _290
REMARK  121  A    between atoms: _290  and  _291
REMARK  122  A    between atoms: _291  and  _292
REMARK  123  A    between atoms: _302  and  _303
REMARK  124  A    between atoms: _308  and  _310
REMARK  125  A    between atoms: _310  and  _311
REMARK  126  A    between atoms: _310  and  _313
REMARK  127  A    between atoms: _313  and  _314
REMARK  128  A    between atoms: _317  and  _319
REMARK  129  A    between atoms: _319  and  _320
REMARK  130  A    between atoms: _319  and  _322
REMARK  131  A    between atoms: _322  and  _323
REMARK  132  A    between atoms: _326  and  _328
REMARK  133  A    between atoms: _328  and  _329
REMARK  134  A    between atoms: _328  and  _331
REMARK  135  A    between atoms: _331  and  _332
REMARK  136  A    between atoms: _335  and  _337
REMARK  137  A    between atoms: _337  and  _338
REMARK  138  A    between atoms: _337  and  _340
REMARK  139  A    between atoms: _340  and  _341
REMARK  140  A    between atoms: _344  and  _346
REMARK  141  A    between atoms: _346  and  _347
REMARK  142  A    between atoms: _346  and  _349
REMARK  143  A    between atoms: _349  and  _350
REMARK  144  A    between atoms: _353  and  _355
REMARK  145  A    between atoms: _355  and  _356
REMARK  146  A    between atoms: _358  and  _360
REMARK  147  A    between atoms: _360  and  _361
REMARK  148  A    between atoms: _364  and  _366
REMARK  149  A    between atoms: _366  and  _367
REMARK  150  A    between atoms: _366  and  _369
REMARK  151  A    between atoms: _369  and  _370
REMARK  152  A    between atoms: _373  and  _375
REMARK  153  A    between atoms: _375  and  _376
REMARK  154  A    between atoms: _375  and  _378
REMARK  155  A    between atoms: _378  and  _379
REMARK  156  A    between atoms: _382  and  _384
REMARK  157  A    between atoms: _384  and  _385
REMARK  158  A    between atoms: _384  and  _387
REMARK  159  A    between atoms: _387  and  _388
REMARK  160  A    between atoms: _391  and  _393
REMARK  161  A    between atoms: _393  and  _394
REMARK  162  A    between atoms: _393  and  _396
REMARK  163  A    between atoms: _399  and  _401
REMARK  164  A    between atoms: _401  and  _402
REMARK  165  A    between atoms: _401  and  _404
REMARK  166  A    between atoms: _404  and  _405
REMARK  167  A    between atoms: _408  and  _410
REMARK  168  A    between atoms: _410  and  _411
REMARK  169  A    between atoms: _410  and  _413
REMARK  170  A    between atoms: _413  and  _414
REMARK  171  A    between atoms: _417  and  _419
REMARK  172  A    between atoms: _419  and  _420
REMARK  173  A    between atoms: _422  and  _424
REMARK  174  A    between atoms: _424  and  _425
REMARK  175  A    between atoms: _427  and  _429
REMARK  176  A    between atoms: _429  and  _430
REMARK  177  A    between atoms: _429  and  _432
REMARK  178  A    between atoms: _435  and  _437
REMARK  179  A    between atoms: _437  and  _438
REMARK  180  A    between atoms: _440  and  _442
REMARK  181  A    between atoms: _442  and  _443
REMARK  182  A    between atoms: _445  and  _447
REMARK  183  A    between atoms: _447  and  _448
REMARK  184  A    between atoms: _447  and  _450
REMARK  185  A    between atoms: _450  and  _451
REMARK  186  A    between atoms: _457  and  _459
REMARK  187  A    between atoms: _459  and  _460
REMARK  188  A    between atoms: _459  and  _462
REMARK  189  A    between atoms: _462  and  _463
REMARK  190  A    between atoms: _466  and  _468
REMARK  191  A    between atoms: _468  and  _469
REMARK  192  A    between atoms: _468  and  _471
REMARK  193  A    between atoms: _474  and  _476
REMARK  194  A    between atoms: _476  and  _477
REMARK  195  A    between atoms: _476  and  _479
REMARK  196  A    between atoms: _479  and  _480
REMARK  197  A    between atoms: _483  and  _485
REMARK  198  A    between atoms: _485  and  _486
REMARK  199  A    between atoms: _485  and  _488
REMARK  200  A    between atoms: _488  and  _489
REMARK  201  A    between atoms: _493  and  _494
REMARK  202  A    between atoms: _499  and  _501
REMARK  203  A    between atoms: _501  and  _502
REMARK  204  A    between atoms: _501  and  _504
REMARK  205  A    between atoms: _507  and  _509
REMARK  206  A    between atoms: _509  and  _510
REMARK  207  A    between atoms: _509  and  _512
REMARK  208  A    between atoms: _512  and  _513
REMARK  209  A    between atoms: _518  and  _520
REMARK  210  A    between atoms: _520  and  _521
REMARK  211  A    between atoms: _520  and  _523
REMARK  212  A    between atoms: _523  and  _524
REMARK  213  A    between atoms: _527  and  _529
REMARK  214  A    between atoms: _529  and  _530
REMARK  215  A    between atoms: _529  and  _532
REMARK  216  A    between atoms: _532  and  _533
REMARK  217  A    between atoms: _536  and  _538
REMARK  218  A    between atoms: _538  and  _539
REMARK  219  A    between atoms: _541  and  _543
REMARK  220  A    between atoms: _543  and  _544
REMARK  221  A    between atoms: _543  and  _546
REMARK  222  A    between atoms: _546  and  _547
REMARK  223  A    between atoms: _547  and  _548
REMARK  224  A    between atoms: _548  and  _549
REMARK                            x       y       z     vdW  Elec       q    Type
REMARK                         _______ _______ _______ _____ _____    ______ ____
ROOT
ATOM      1  O   HOH     1     -25.450   9.137  11.343  0.00  0.00    +0.000 OA
ENDROOT
TORSDOF 0
REMARK  Name = ../refined-set-2016/2o4l/2o4l_pocket.pdb
REMARK  224 active torsions:
REMARK  status: ('A' for Active; 'I' for Inactive)
REMARK    1  A    between atoms: _1  and  _3
REMARK    2  A    between atoms: _3  and  _4
REMARK    3  A    between atoms: _3  and  _6
REMARK    4  A    between atoms: _6  and  _7
REMARK    5  A    between atoms: _7  and  _8
REMARK    6  A    between atoms: _8  and  _9
REMARK    7  A    between atoms: _18  and  _20
REMARK    8  A    between atoms: _20  and  _21
REMARK    9  A    between atoms: _20  and  _23
REMARK   10  A    between atoms: _23  and  _24
REMARK   11  A    between atoms: _27  and  _29
REMARK   12  A    between atoms: _29  and  _30
REMARK   13  A    between atoms: _29  and  _32
REMARK   14  A    between atoms: _32  and  _33
REMARK   15  A    between atoms: _36  and  _38
REMARK   16  A    between atoms: _38  and  _39
REMARK   17  A    between atoms: _38  and  _41
REMARK   18  A    between atoms: _41  and  _42
REMARK   19  A    between atoms: _45  and  _47
REMARK   20  A    between atoms: _47  and  _48
REMARK   21  A    between atoms: _47  and  _50
REMARK   22  A    between atoms: _50  and  _51
REMARK   23  A    between atoms: _54  and  _56
REMARK   24  A    between atoms: _56  and  _57
REMARK   25  A    between atoms: _56  and  _59
REMARK   26  A    between atoms: _59  and  _60
REMARK   27  A    between atoms: _63  and  _65
REMARK   28  A    between atoms: _65  and  _66
REMARK   29  A    between atoms: _68  and  _70
REMARK   30  A    between atoms: _70  and  _71
REMARK   31  A    between atoms: _74  and  _76
REMARK   32  A    between atoms: _76  and  _77
REMARK   33  A    between atoms: _76  and  _79
REMARK   34  A    between atoms: _79  and  _80
REMARK   35  A    between atoms: _83  and  _85
REMARK   36  A    between atoms: _85  and  _86
REMARK   37  A    between atoms: _85  and  _88
REMARK   38  A    between atoms: _88  and  _89
REMARK   39  A    between atoms: _92  and  _94
REMARK   40  A    between atoms: _94  and  _95
REMARK   41  A    between atoms: _94  and  _97
REMARK   42  A    between atoms: _97  and  _98
REMARK   43  A    between atoms: _101  and  _103
REMARK   44  A    between atoms: _103  and  _104
REMARK   45  A    between atoms: _103  and  _106
REMARK   46  A    between atoms: _109  and  _111
REMARK   47  A    between atoms: _111  and  _112
REMARK   48  A    between atoms: _111  and  _114
REMARK   49  A    between atoms: _114  and  _115
REMARK   50  A    between atoms: _115  and  _116
REMARK   51  A    between atoms: _116  and  _117
REMARK   52  A    between atoms: _117  and  _118
REMARK   53  A    between atoms: _122  and  _124
REMARK   54  A    between atoms: _124  and  _125
REMARK   55  A    between atoms: _124  and  _127
REMARK   56  A    between atoms: _127  and  _128
REMARK   57  A    between atoms: _128  and  _129
REMARK   58  A    between atoms: _131  and  _133
REMARK   59  A    between atoms: _133  and  _134
REMARK   60  A    between atoms: _133  and  _136
REMARK   61  A    between atoms: _136  and  _137
REMARK   62  A    between atoms: _140  and  _142
REMARK   63  A    between atoms: _142  and  _143
REMARK   64  A    between atoms: _145  and  _147
REMARK   65  A    between atoms: _147  and  _148
REMARK   66  A    between atoms: _150  and  _152
REMARK   67  A    between atoms: _152  and  _153
REMARK   68  A    between atoms: _152  and  _155
REMARK   69  A    between atoms: _158  and  _160
REMARK   70  A    between atoms: _160  and  _161
REMARK   71  A    between atoms: _163  and  _165
REMARK   72  A    between atoms: _165  and  _166
REMARK   73  A    between atoms: _168  and  _170
REMARK   74  A    between atoms: _170  and  _171
REMARK   75  A    between atoms: _170  and  _173
REMARK   76  A    between atoms: _173  and  _174
REMARK   77  A    between atoms: _180  and  _182
REMARK   78  A    between atoms: _182  and  _183
REMARK   79  A    between atoms: _182  and  _185
REMARK   80  A    between atoms: _185  and  _186
REMARK   81  A    between atoms: _189  and  _191
REMARK   82  A    between atoms: _191  and  _192
REMARK   83  A    between atoms: _191  and  _194
REMARK   84  A    between atoms: _194  and  _195
REMARK   85  A    between atoms: _198  and  _200
REMARK   86  A    between atoms: _200  and  _201
REMARK   87  A    between atoms: _200  and  _203
REMARK   88  A    between atoms: _203  and  _204
REMARK   89  A    between atoms: _208  and  _209
REMARK   90  A    between atoms: _214  and  _216
REMARK   91  A    between atoms: _216  and  _217
REMARK   92  A    between atoms: _216  and  _219
REMARK   93  A    between atoms: _222  and  _224
REMARK   94  A    between atoms: _224  and  _225
REMARK   95  A    between atoms: _224  and  _227
REMARK   96  A    between atoms: _227  and  _228
REMARK   97  A    between atoms: _233  and  _235
REMARK   98  A    between atoms: _235  and  _236
REMARK   99  A    between atoms: _235  and  _238
REMARK  100  A    between atoms: _238  and  _239
REMARK  101  A    between atoms: _242  and  _244
REMARK  102  A    between atoms: _244  and  _245
REMARK  103  A    between atoms: _244  and  _247
REMARK  104  A    between atoms: _247  and  _248
REMARK  105  A    between atoms: _251  and  _253
REMARK  106  A    between atoms: _253  and  _254
REMARK  107  A    between atoms: _256  and  _258
REMARK  108  A    between atoms: _258  and  _259
REMARK  109  A    between atoms: _258  and  _261
REMARK  110  A    between atoms: _261  and  _262
REMARK  111  A    between atoms: _262  and  _263
REMARK  112  A    between atoms: _263  and  _264
REMARK  113  A    between atoms: _273  and  _275
REMARK  114  A    between atoms: _275  and  _276
REMARK  115  A    between atoms: _275  and  _278
REMARK  116  A    between atoms: _278  and  _279
REMARK  117  A    between atoms: _284  and  _286
REMARK  118  A    between atoms: _286  and  _287
REMARK  119  A    between atoms: _286  and  _289
REMARK  120  A    between atoms: _289  and  _290
REMARK  121  A    between atoms: _290  and  _291
REMARK  122  A    between atoms: _291  and  _292
REMARK  123  A    between atoms: _302  and  _303
REMARK  124  A    between atoms: _308  and  _310
REMARK  125  A    between atoms: _310  and  _311
REMARK  126  A    between atoms: _310  and  _313
REMARK  127  A    between atoms: _313  and  _314
REMARK  128  A    between atoms: _317  and  _319
REMARK  129  A    between atoms: _319  and  _320
REMARK  130  A    between atoms: _319  and  _322
REMARK  131  A    between atoms: _322  and  _323
REMARK  132  A    between atoms: _326  and  _328
REMARK  133  A    between atoms: _328  and  _329
REMARK  134  A    between atoms: _328  and  _331
REMARK  135  A    between atoms: _331  and  _332
REMARK  136  A    between atoms: _335  and  _337
REMARK  137  A    between atoms: _337  and  _338
REMARK  138  A    between atoms: _337  and  _340
REMARK  139  A    between atoms: _340  and  _341
REMARK  140  A    between atoms: _344  and  _346
REMARK  141  A    between atoms: _346  and  _347
REMARK  142  A    between atoms: _346  and  _349
REMARK  143  A    between atoms: _349  and  _350
REMARK  144  A    between atoms: _353  and  _355
REMARK  145  A    between atoms: _355  and  _356
REMARK  146  A    between atoms: _358  and  _360
REMARK  147  A    between atoms: _360  and  _361
REMARK  148  A    between atoms: _364  and  _366
REMARK  149  A    between atoms: _366  and  _367
REMARK  150  A    between atoms: _366  and  _369
REMARK  151  A    between atoms: _369  and  _370
REMARK  152  A    between atoms: _373  and  _375
REMARK  153  A    between atoms: _375  and  _376
REMARK  154  A    between atoms: _375  and  _378
REMARK  155  A    between atoms: _378  and  _379
REMARK  156  A    between atoms: _382  and  _384
REMARK  157  A    between atoms: _384  and  _385
REMARK  158  A    between atoms: _384  and  _387
REMARK  159  A    between atoms: _387  and  _388
REMARK  160  A    between atoms: _391  and  _393
REMARK  161  A    between atoms: _393  and  _394
REMARK  162  A    between atoms: _393  and  _396
REMARK  163  A    between atoms: _399  and  _401
REMARK  164  A    between atoms: _401  and  _402
REMARK  165  A    between atoms: _401  and  _404
REMARK  166  A    between atoms: _404  and  _405
REMARK  167  A    between atoms: _408  and  _410
REMARK  168  A    between atoms: _410  and  _411
REMARK  169  A    between atoms: _410  and  _413
REMARK  170  A    between atoms: _413  and  _414
REMARK  171  A    between atoms: _417  and  _419
REMARK  172  A    between atoms: _419  and  _420
REMARK  173  A    between atoms: _422  and  _424
REMARK  174  A    between atoms: _424  and  _425
REMARK  175  A    between atoms: _427  and  _429
REMARK  176  A    between atoms: _429  and  _430
REMARK  177  A    between atoms: _429  and  _432
REMARK  178  A    between atoms: _435  and  _437
REMARK  179  A    between atoms: _437  and  _438
REMARK  180  A    between atoms: _440  and  _442
REMARK  181  A    between atoms: _442  and  _443
REMARK  182  A    between atoms: _445  and  _447
REMARK  183  A    between atoms: _447  and  _448
REMARK  184  A    between atoms: _447  and  _450
REMARK  185  A    between atoms: _450  and  _451
REMARK  186  A    between atoms: _457  and  _459
REMARK  187  A    between atoms: _459  and  _460
REMARK  188  A    between atoms: _459  and  _462
REMARK  189  A    between atoms: _462  and  _463
REMARK  190  A    between atoms: _466  and  _468
REMARK  191  A    between atoms: _468  and  _469
REMARK  192  A    between atoms: _468  and  _471
REMARK  193  A    between atoms: _474  and  _476
REMARK  194  A    between atoms: _476  and  _477
REMARK  195  A    between atoms: _476  and  _479
REMARK  196  A    between atoms: _479  and  _480
REMARK  197  A    between atoms: _483  and  _485
REMARK  198  A    between atoms: _485  and  _486
REMARK  199  A    between atoms: _485  and  _488
REMARK  200  A    between atoms: _488  and  _489
REMARK  201  A    between atoms: _493  and  _494
REMARK  202  A    between atoms: _499  and  _501
REMARK  203  A    between atoms: _501  and  _502
REMARK  204  A    between atoms: _501  and  _504
REMARK  205  A    between atoms: _507  and  _509
REMARK  206  A    between atoms: _509  and  _510
REMARK  207  A    between atoms: _509  and  _512
REMARK  208  A    between atoms: _512  and  _513
REMARK  209  A    between atoms: _518  and  _520
REMARK  210  A    between atoms: _520  and  _521
REMARK  211  A    between atoms: _520  and  _523
REMARK  212  A    between atoms: _523  and  _524
REMARK  213  A    between atoms: _527  and  _529
REMARK  214  A    between atoms: _529  and  _530
REMARK  215  A    between atoms: _529  and  _532
REMARK  216  A    between atoms: _532  and  _533
REMARK  217  A    between atoms: _536  and  _538
REMARK  218  A    between atoms: _538  and  _539
REMARK  219  A    between atoms: _541  and  _543
REMARK  220  A    between atoms: _543  and  _544
REMARK  221  A    between atoms: _543  and  _546
REMARK  222  A    between atoms: _546  and  _547
REMARK  223  A    between atoms: _547  and  _548
REMARK  224  A    between atoms: _548  and  _549
REMARK                            x       y       z     vdW  Elec       q    Type
REMARK                         _______ _______ _______ _____ _____    ______ ____
ROOT
ATOM      1  O   HOH     1     -22.792   8.641  12.334  0.00  0.00    +0.000 OA
ENDROOT
TORSDOF 0
REMARK  Name = ../refined-set-2016/2o4l/2o4l_pocket.pdb
REMARK  224 active torsions:
REMARK  status: ('A' for Active; 'I' for Inactive)
REMARK    1  A    between atoms: _1  and  _3
REMARK    2  A    between atoms: _3  and  _4
REMARK    3  A    between atoms: _3  and  _6
REMARK    4  A    between atoms: _6  and  _7
REMARK    5  A    between atoms: _7  and  _8
REMARK    6  A    between atoms: _8  and  _9
REMARK    7  A    between atoms: _18  and  _20
REMARK    8  A    between atoms: _20  and  _21
REMARK    9  A    between atoms: _20  and  _23
REMARK   10  A    between atoms: _23  and  _24
REMARK   11  A    between atoms: _27  and  _29
REMARK   12  A    between atoms: _29  and  _30
REMARK   13  A    between atoms: _29  and  _32
REMARK   14  A    between atoms: _32  and  _33
REMARK   15  A    between atoms: _36  and  _38
REMARK   16  A    between atoms: _38  and  _39
REMARK   17  A    between atoms: _38  and  _41
REMARK   18  A    between atoms: _41  and  _42
REMARK   19  A    between atoms: _45  and  _47
REMARK   20  A    between atoms: _47  and  _48
REMARK   21  A    between atoms: _47  and  _50
REMARK   22  A    between atoms: _50  and  _51
REMARK   23  A    between atoms: _54  and  _56
REMARK   24  A    between atoms: _56  and  _57
REMARK   25  A    between atoms: _56  and  _59
REMARK   26  A    between atoms: _59  and  _60
REMARK   27  A    between atoms: _63  and  _65
REMARK   28  A    between atoms: _65  and  _66
REMARK   29  A    between atoms: _68  and  _70
REMARK   30  A    between atoms: _70  and  _71
REMARK   31  A    between atoms: _74  and  _76
REMARK   32  A    between atoms: _76  and  _77
REMARK   33  A    between atoms: _76  and  _79
REMARK   34  A    between atoms: _79  and  _80
REMARK   35  A    between atoms: _83  and  _85
REMARK   36  A    between atoms: _85  and  _86
REMARK   37  A    between atoms: _85  and  _88
REMARK   38  A    between atoms: _88  and  _89
REMARK   39  A    between atoms: _92  and  _94
REMARK   40  A    between atoms: _94  and  _95
REMARK   41  A    between atoms: _94  and  _97
REMARK   42  A    between atoms: _97  and  _98
REMARK   43  A    between atoms: _101  and  _103
REMARK   44  A    between atoms: _103  and  _104
REMARK   45  A    between atoms: _103  and  _106
REMARK   46  A    between atoms: _109  and  _111
REMARK   47  A    between atoms: _111  and  _112
REMARK   48  A    between atoms: _111  and  _114
REMARK   49  A    between atoms: _114  and  _115
REMARK   50  A    between atoms: _115  and  _116
REMARK   51  A    between atoms: _116  and  _117
REMARK   52  A    between atoms: _117  and  _118
REMARK   53  A    between atoms: _122  and  _124
REMARK   54  A    between atoms: _124  and  _125
REMARK   55  A    between atoms: _124  and  _127
REMARK   56  A    between atoms: _127  and  _128
REMARK   57  A    between atoms: _128  and  _129
REMARK   58  A    between atoms: _131  and  _133
REMARK   59  A    between atoms: _133  and  _134
REMARK   60  A    between atoms: _133  and  _136
REMARK   61  A    between atoms: _136  and  _137
REMARK   62  A    between atoms: _140  and  _142
REMARK   63  A    between atoms: _142  and  _143
REMARK   64  A    between atoms: _145  and  _147
REMARK   65  A    between atoms: _147  and  _148
REMARK   66  A    between atoms: _150  and  _152
REMARK   67  A    between atoms: _152  and  _153
REMARK   68  A    between atoms: _152  and  _155
REMARK   69  A    between atoms: _158  and  _160
REMARK   70  A    between atoms: _160  and  _161
REMARK   71  A    between atoms: _163  and  _165
REMARK   72  A    between atoms: _165  and  _166
REMARK   73  A    between atoms: _168  and  _170
REMARK   74  A    between atoms: _170  and  _171
REMARK   75  A    between atoms: _170  and  _173
REMARK   76  A    between atoms: _173  and  _174
REMARK   77  A    between atoms: _180  and  _182
REMARK   78  A    between atoms: _182  and  _183
REMARK   79  A    between atoms: _182  and  _185
REMARK   80  A    between atoms: _185  and  _186
REMARK   81  A    between atoms: _189  and  _191
REMARK   82  A    between atoms: _191  and  _192
REMARK   83  A    between atoms: _191  and  _194
REMARK   84  A    between atoms: _194  and  _195
REMARK   85  A    between atoms: _198  and  _200
REMARK   86  A    between atoms: _200  and  _201
REMARK   87  A    between atoms: _200  and  _203
REMARK   88  A    between atoms: _203  and  _204
REMARK   89  A    between atoms: _208  and  _209
REMARK   90  A    between atoms: _214  and  _216
REMARK   91  A    between atoms: _216  and  _217
REMARK   92  A    between atoms: _216  and  _219
REMARK   93  A    between atoms: _222  and  _224
REMARK   94  A    between atoms: _224  and  _225
REMARK   95  A    between atoms: _224  and  _227
REMARK   96  A    between atoms: _227  and  _228
REMARK   97  A    between atoms: _233  and  _235
REMARK   98  A    between atoms: _235  and  _236
REMARK   99  A    between atoms: _235  and  _238
REMARK  100  A    between atoms: _238  and  _239
REMARK  101  A    between atoms: _242  and  _244
REMARK  102  A    between atoms: _244  and  _245
REMARK  103  A    between atoms: _244  and  _247
REMARK  104  A    between atoms: _247  and  _248
REMARK  105  A    between atoms: _251  and  _253
REMARK  106  A    between atoms: _253  and  _254
REMARK  107  A    between atoms: _256  and  _258
REMARK  108  A    between atoms: _258  and  _259
REMARK  109  A    between atoms: _258  and  _261
REMARK  110  A    between atoms: _261  and  _262
REMARK  111  A    between atoms: _262  and  _263
REMARK  112  A    between atoms: _263  and  _264
REMARK  113  A    between atoms: _273  and  _275
REMARK  114  A    between atoms: _275  and  _276
REMARK  115  A    between atoms: _275  and  _278
REMARK  116  A    between atoms: _278  and  _279
REMARK  117  A    between atoms: _284  and  _286
REMARK  118  A    between atoms: _286  and  _287
REMARK  119  A    between atoms: _286  and  _289
REMARK  120  A    between atoms: _289  and  _290
REMARK  121  A    between atoms: _290  and  _291
REMARK  122  A    between atoms: _291  and  _292
REMARK  123  A    between atoms: _302  and  _303
REMARK  124  A    between atoms: _308  and  _310
REMARK  125  A    between atoms: _310  and  _311
REMARK  126  A    between atoms: _310  and  _313
REMARK  127  A    between atoms: _313  and  _314
REMARK  128  A    between atoms: _317  and  _319
REMARK  129  A    between atoms: _319  and  _320
REMARK  130  A    between atoms: _319  and  _322
REMARK  131  A    between atoms: _322  and  _323
REMARK  132  A    between atoms: _326  and  _328
REMARK  133  A    between atoms: _328  and  _329
REMARK  134  A    between atoms: _328  and  _331
REMARK  135  A    between atoms: _331  and  _332
REMARK  136  A    between atoms: _335  and  _337
REMARK  137  A    between atoms: _337  and  _338
REMARK  138  A    between atoms: _337  and  _340
REMARK  139  A    between atoms: _340  and  _341
REMARK  140  A    between atoms: _344  and  _346
REMARK  141  A    between atoms: _346  and  _347
REMARK  142  A    between atoms: _346  and  _349
REMARK  143  A    between atoms: _349  and  _350
REMARK  144  A    between atoms: _353  and  _355
REMARK  145  A    between atoms: _355  and  _356
REMARK  146  A    between atoms: _358  and  _360
REMARK  147  A    between atoms: _360  and  _361
REMARK  148  A    between atoms: _364  and  _366
REMARK  149  A    between atoms: _366  and  _367
REMARK  150  A    between atoms: _366  and  _369
REMARK  151  A    between atoms: _369  and  _370
REMARK  152  A    between atoms: _373  and  _375
REMARK  153  A    between atoms: _375  and  _376
REMARK  154  A    between atoms: _375  and  _378
REMARK  155  A    between atoms: _378  and  _379
REMARK  156  A    between atoms: _382  and  _384
REMARK  157  A    between atoms: _384  and  _385
REMARK  158  A    between atoms: _384  and  _387
REMARK  159  A    between atoms: _387  and  _388
REMARK  160  A    between atoms: _391  and  _393
REMARK  161  A    between atoms: _393  and  _394
REMARK  162  A    between atoms: _393  and  _396
REMARK  163  A    between atoms: _399  and  _401
REMARK  164  A    between atoms: _401  and  _402
REMARK  165  A    between atoms: _401  and  _404
REMARK  166  A    between atoms: _404  and  _405
REMARK  167  A    between atoms: _408  and  _410
REMARK  168  A    between atoms: _410  and  _411
REMARK  169  A    between atoms: _410  and  _413
REMARK  170  A    between atoms: _413  and  _414
REMARK  171  A    between atoms: _417  and  _419
REMARK  172  A    between atoms: _419  and  _420
REMARK  173  A    between atoms: _422  and  _424
REMARK  174  A    between atoms: _424  and  _425
REMARK  175  A    between atoms: _427  and  _429
REMARK  176  A    between atoms: _429  and  _430
REMARK  177  A    between atoms: _429  and  _432
REMARK  178  A    between atoms: _435  and  _437
REMARK  179  A    between atoms: _437  and  _438
REMARK  180  A    between atoms: _440  and  _442
REMARK  181  A    between atoms: _442  and  _443
REMARK  182  A    between atoms: _445  and  _447
REMARK  183  A    between atoms: _447  and  _448
REMARK  184  A    between atoms: _447  and  _450
REMARK  185  A    between atoms: _450  and  _451
REMARK  186  A    between atoms: _457  and  _459
REMARK  187  A    between atoms: _459  and  _460
REMARK  188  A    between atoms: _459  and  _462
REMARK  189  A    between atoms: _462  and  _463
REMARK  190  A    between atoms: _466  and  _468
REMARK  191  A    between atoms: _468  and  _469
REMARK  192  A    between atoms: _468  and  _471
REMARK  193  A    between atoms: _474  and  _476
REMARK  194  A    between atoms: _476  and  _477
REMARK  195  A    between atoms: _476  and  _479
REMARK  196  A    between atoms: _479  and  _480
REMARK  197  A    between atoms: _483  and  _485
REMARK  198  A    between atoms: _485  and  _486
REMARK  199  A    between atoms: _485  and  _488
REMARK  200  A    between atoms: _488  and  _489
REMARK  201  A    between atoms: _493  and  _494
REMARK  202  A    between atoms: _499  and  _501
REMARK  203  A    between atoms: _501  and  _502
REMARK  204  A    between atoms: _501  and  _504
REMARK  205  A    between atoms: _507  and  _509
REMARK  206  A    between atoms: _509  and  _510
REMARK  207  A    between atoms: _509  and  _512
REMARK  208  A    between atoms: _512  and  _513
REMARK  209  A    between atoms: _518  and  _520
REMARK  210  A    between atoms: _520  and  _521
REMARK  211  A    between atoms: _520  and  _523
REMARK  212  A    between atoms: _523  and  _524
REMARK  213  A    between atoms: _527  and  _529
REMARK  214  A    between atoms: _529  and  _530
REMARK  215  A    between atoms: _529  and  _532
REMARK  216  A    between atoms: _532  and  _533
REMARK  217  A    between atoms: _536  and  _538
REMARK  218  A    between atoms: _538  and  _539
REMARK  219  A    between atoms: _541  and  _543
REMARK  220  A    between atoms: _543  and  _544
REMARK  221  A    between atoms: _543  and  _546
REMARK  222  A    between atoms: _546  and  _547
REMARK  223  A    between atoms: _547  and  _548
REMARK  224  A    between atoms: _548  and  _549
REMARK                            x       y       z     vdW  Elec       q    Type
REMARK                         _______ _______ _______ _____ _____    ______ ____
ROOT
ATOM      1  O   HOH     1     -25.786  12.768  17.383  0.00  0.00    +0.000 OA
ENDROOT
TORSDOF 0
REMARK  Name = ../refined-set-2016/2o4l/2o4l_pocket.pdb
REMARK  224 active torsions:
REMARK  status: ('A' for Active; 'I' for Inactive)
REMARK    1  A    between atoms: _1  and  _3
REMARK    2  A    between atoms: _3  and  _4
REMARK    3  A    between atoms: _3  and  _6
REMARK    4  A    between atoms: _6  and  _7
REMARK    5  A    between atoms: _7  and  _8
REMARK    6  A    between atoms: _8  and  _9
REMARK    7  A    between atoms: _18  and  _20
REMARK    8  A    between atoms: _20  and  _21
REMARK    9  A    between atoms: _20  and  _23
REMARK   10  A    between atoms: _23  and  _24
REMARK   11  A    between atoms: _27  and  _29
REMARK   12  A    between atoms: _29  and  _30
REMARK   13  A    between atoms: _29  and  _32
REMARK   14  A    between atoms: _32  and  _33
REMARK   15  A    between atoms: _36  and  _38
REMARK   16  A    between atoms: _38  and  _39
REMARK   17  A    between atoms: _38  and  _41
REMARK   18  A    between atoms: _41  and  _42
REMARK   19  A    between atoms: _45  and  _47
REMARK   20  A    between atoms: _47  and  _48
REMARK   21  A    between atoms: _47  and  _50
REMARK   22  A    between atoms: _50  and  _51
REMARK   23  A    between atoms: _54  and  _56
REMARK   24  A    between atoms: _56  and  _57
REMARK   25  A    between atoms: _56  and  _59
REMARK   26  A    between atoms: _59  and  _60
REMARK   27  A    between atoms: _63  and  _65
REMARK   28  A    between atoms: _65  and  _66
REMARK   29  A    between atoms: _68  and  _70
REMARK   30  A    between atoms: _70  and  _71
REMARK   31  A    between atoms: _74  and  _76
REMARK   32  A    between atoms: _76  and  _77
REMARK   33  A    between atoms: _76  and  _79
REMARK   34  A    between atoms: _79  and  _80
REMARK   35  A    between atoms: _83  and  _85
REMARK   36  A    between atoms: _85  and  _86
REMARK   37  A    between atoms: _85  and  _88
REMARK   38  A    between atoms: _88  and  _89
REMARK   39  A    between atoms: _92  and  _94
REMARK   40  A    between atoms: _94  and  _95
REMARK   41  A    between atoms: _94  and  _97
REMARK   42  A    between atoms: _97  and  _98
REMARK   43  A    between atoms: _101  and  _103
REMARK   44  A    between atoms: _103  and  _104
REMARK   45  A    between atoms: _103  and  _106
REMARK   46  A    between atoms: _109  and  _111
REMARK   47  A    between atoms: _111  and  _112
REMARK   48  A    between atoms: _111  and  _114
REMARK   49  A    between atoms: _114  and  _115
REMARK   50  A    between atoms: _115  and  _116
REMARK   51  A    between atoms: _116  and  _117
REMARK   52  A    between atoms: _117  and  _118
REMARK   53  A    between atoms: _122  and  _124
REMARK   54  A    between atoms: _124  and  _125
REMARK   55  A    between atoms: _124  and  _127
REMARK   56  A    between atoms: _127  and  _128
REMARK   57  A    between atoms: _128  and  _129
REMARK   58  A    between atoms: _131  and  _133
REMARK   59  A    between atoms: _133  and  _134
REMARK   60  A    between atoms: _133  and  _136
REMARK   61  A    between atoms: _136  and  _137
REMARK   62  A    between atoms: _140  and  _142
REMARK   63  A    between atoms: _142  and  _143
REMARK   64  A    between atoms: _145  and  _147
REMARK   65  A    between atoms: _147  and  _148
REMARK   66  A    between atoms: _150  and  _152
REMARK   67  A    between atoms: _152  and  _153
REMARK   68  A    between atoms: _152  and  _155
REMARK   69  A    between atoms: _158  and  _160
REMARK   70  A    between atoms: _160  and  _161
REMARK   71  A    between atoms: _163  and  _165
REMARK   72  A    between atoms: _165  and  _166
REMARK   73  A    between atoms: _168  and  _170
REMARK   74  A    between atoms: _170  and  _171
REMARK   75  A    between atoms: _170  and  _173
REMARK   76  A    between atoms: _173  and  _174
REMARK   77  A    between atoms: _180  and  _182
REMARK   78  A    between atoms: _182  and  _183
REMARK   79  A    between atoms: _182  and  _185
REMARK   80  A    between atoms: _185  and  _186
REMARK   81  A    between atoms: _189  and  _191
REMARK   82  A    between atoms: _191  and  _192
REMARK   83  A    between atoms: _191  and  _194
REMARK   84  A    between atoms: _194  and  _195
REMARK   85  A    between atoms: _198  and  _200
REMARK   86  A    between atoms: _200  and  _201
REMARK   87  A    between atoms: _200  and  _203
REMARK   88  A    between atoms: _203  and  _204
REMARK   89  A    between atoms: _208  and  _209
REMARK   90  A    between atoms: _214  and  _216
REMARK   91  A    between atoms: _216  and  _217
REMARK   92  A    between atoms: _216  and  _219
REMARK   93  A    between atoms: _222  and  _224
REMARK   94  A    between atoms: _224  and  _225
REMARK   95  A    between atoms: _224  and  _227
REMARK   96  A    between atoms: _227  and  _228
REMARK   97  A    between atoms: _233  and  _235
REMARK   98  A    between atoms: _235  and  _236
REMARK   99  A    between atoms: _235  and  _238
REMARK  100  A    between atoms: _238  and  _239
REMARK  101  A    between atoms: _242  and  _244
REMARK  102  A    between atoms: _244  and  _245
REMARK  103  A    between atoms: _244  and  _247
REMARK  104  A    between atoms: _247  and  _248
REMARK  105  A    between atoms: _251  and  _253
REMARK  106  A    between atoms: _253  and  _254
REMARK  107  A    between atoms: _256  and  _258
REMARK  108  A    between atoms: _258  and  _259
REMARK  109  A    between atoms: _258  and  _261
REMARK  110  A    between atoms: _261  and  _262
REMARK  111  A    between atoms: _262  and  _263
REMARK  112  A    between atoms: _263  and  _264
REMARK  113  A    between atoms: _273  and  _275
REMARK  114  A    between atoms: _275  and  _276
REMARK  115  A    between atoms: _275  and  _278
REMARK  116  A    between atoms: _278  and  _279
REMARK  117  A    between atoms: _284  and  _286
REMARK  118  A    between atoms: _286  and  _287
REMARK  119  A    between atoms: _286  and  _289
REMARK  120  A    between atoms: _289  and  _290
REMARK  121  A    between atoms: _290  and  _291
REMARK  122  A    between atoms: _291  and  _292
REMARK  123  A    between atoms: _302  and  _303
REMARK  124  A    between atoms: _308  and  _310
REMARK  125  A    between atoms: _310  and  _311
REMARK  126  A    between atoms: _310  and  _313
REMARK  127  A    between atoms: _313  and  _314
REMARK  128  A    between atoms: _317  and  _319
REMARK  129  A    between atoms: _319  and  _320
REMARK  130  A    between atoms: _319  and  _322
REMARK  131  A    between atoms: _322  and  _323
REMARK  132  A    between atoms: _326  and  _328
REMARK  133  A    between atoms: _328  and  _329
REMARK  134  A    between atoms: _328  and  _331
REMARK  135  A    between atoms: _331  and  _332
REMARK  136  A    between atoms: _335  and  _337
REMARK  137  A    between atoms: _337  and  _338
REMARK  138  A    between atoms: _337  and  _340
REMARK  139  A    between atoms: _340  and  _341
REMARK  140  A    between atoms: _344  and  _346
REMARK  141  A    between atoms: _346  and  _347
REMARK  142  A    between atoms: _346  and  _349
REMARK  143  A    between atoms: _349  and  _350
REMARK  144  A    between atoms: _353  and  _355
REMARK  145  A    between atoms: _355  and  _356
REMARK  146  A    between atoms: _358  and  _360
REMARK  147  A    between atoms: _360  and  _361
REMARK  148  A    between atoms: _364  and  _366
REMARK  149  A    between atoms: _366  and  _367
REMARK  150  A    between atoms: _366  and  _369
REMARK  151  A    between atoms: _369  and  _370
REMARK  152  A    between atoms: _373  and  _375
REMARK  153  A    between atoms: _375  and  _376
REMARK  154  A    between atoms: _375  and  _378
REMARK  155  A    between atoms: _378  and  _379
REMARK  156  A    between atoms: _382  and  _384
REMARK  157  A    between atoms: _384  and  _385
REMARK  158  A    between atoms: _384  and  _387
REMARK  159  A    between atoms: _387  and  _388
REMARK  160  A    between atoms: _391  and  _393
REMARK  161  A    between atoms: _393  and  _394
REMARK  162  A    between atoms: _393  and  _396
REMARK  163  A    between atoms: _399  and  _401
REMARK  164  A    between atoms: _401  and  _402
REMARK  165  A    between atoms: _401  and  _404
REMARK  166  A    between atoms: _404  and  _405
REMARK  167  A    between atoms: _408  and  _410
REMARK  168  A    between atoms: _410  and  _411
REMARK  169  A    between atoms: _410  and  _413
REMARK  170  A    between atoms: _413  and  _414
REMARK  171  A    between atoms: _417  and  _419
REMARK  172  A    between atoms: _419  and  _420
REMARK  173  A    between atoms: _422  and  _424
REMARK  174  A    between atoms: _424  and  _425
REMARK  175  A    between atoms: _427  and  _429
REMARK  176  A    between atoms: _429  and  _430
REMARK  177  A    between atoms: _429  and  _432
REMARK  178  A    between atoms: _435  and  _437
REMARK  179  A    between atoms: _437  and  _438
REMARK  180  A    between atoms: _440  and  _442
REMARK  181  A    between atoms: _442  and  _443
REMARK  182  A    between atoms: _445  and  _447
REMARK  183  A    between atoms: _447  and  _448
REMARK  184  A    between atoms: _447  and  _450
REMARK  185  A    between atoms: _450  and  _451
REMARK  186  A    between atoms: _457  and  _459
REMARK  187  A    between atoms: _459  and  _460
REMARK  188  A    between atoms: _459  and  _462
REMARK  189  A    between atoms: _462  and  _463
REMARK  190  A    between atoms: _466  and  _468
REMARK  191  A    between atoms: _468  and  _469
REMARK  192  A    between atoms: _468  and  _471
REMARK  193  A    between atoms: _474  and  _476
REMARK  194  A    between atoms: _476  and  _477
REMARK  195  A    between atoms: _476  and  _479
REMARK  196  A    between atoms: _479  and  _480
REMARK  197  A    between atoms: _483  and  _485
REMARK  198  A    between atoms: _485  and  _486
REMARK  199  A    between atoms: _485  and  _488
REMARK  200  A    between atoms: _488  and  _489
REMARK  201  A    between atoms: _493  and  _494
REMARK  202  A    between atoms: _499  and  _501
REMARK  203  A    between atoms: _501  and  _502
REMARK  204  A    between atoms: _501  and  _504
REMARK  205  A    between atoms: _507  and  _509
REMARK  206  A    between atoms: _509  and  _510
REMARK  207  A    between atoms: _509  and  _512
REMARK  208  A    between atoms: _512  and  _513
REMARK  209  A    between atoms: _518  and  _520
REMARK  210  A    between atoms: _520  and  _521
REMARK  211  A    between atoms: _520  and  _523
REMARK  212  A    between atoms: _523  and  _524
REMARK  213  A    between atoms: _527  and  _529
REMARK  214  A    between atoms: _529  and  _530
REMARK  215  A    between atoms: _529  and  _532
REMARK  216  A    between atoms: _532  and  _533
REMARK  217  A    between atoms: _536  and  _538
REMARK  218  A    between atoms: _538  and  _539
REMARK  219  A    between atoms: _541  and  _543
REMARK  220  A    between atoms: _543  and  _544
REMARK  221  A    between atoms: _543  and  _546
REMARK  222  A    between atoms: _546  and  _547
REMARK  223  A    between atoms: _547  and  _548
REMARK  224  A    between atoms: _548  and  _549
REMARK                            x       y       z     vdW  Elec       q    Type
REMARK                         _______ _______ _______ _____ _____    ______ ____
ROOT
ATOM      1  O   HOH     1     -23.548   8.410  18.573  0.00  0.00    +0.000 OA
ENDROOT
TORSDOF 0
REMARK  Name = ../refined-set-2016/2o4l/2o4l_pocket.pdb
REMARK  224 active torsions:
REMARK  status: ('A' for Active; 'I' for Inactive)
REMARK    1  A    between atoms: _1  and  _3
REMARK    2  A    between atoms: _3  and  _4
REMARK    3  A    between atoms: _3  and  _6
REMARK    4  A    between atoms: _6  and  _7
REMARK    5  A    between atoms: _7  and  _8
REMARK    6  A    between atoms: _8  and  _9
REMARK    7  A    between atoms: _18  and  _20
REMARK    8  A    between atoms: _20  and  _21
REMARK    9  A    between atoms: _20  and  _23
REMARK   10  A    between atoms: _23  and  _24
REMARK   11  A    between atoms: _27  and  _29
REMARK   12  A    between atoms: _29  and  _30
REMARK   13  A    between atoms: _29  and  _32
REMARK   14  A    between atoms: _32  and  _33
REMARK   15  A    between atoms: _36  and  _38
REMARK   16  A    between atoms: _38  and  _39
REMARK   17  A    between atoms: _38  and  _41
REMARK   18  A    between atoms: _41  and  _42
REMARK   19  A    between atoms: _45  and  _47
REMARK   20  A    between atoms: _47  and  _48
REMARK   21  A    between atoms: _47  and  _50
REMARK   22  A    between atoms: _50  and  _51
REMARK   23  A    between atoms: _54  and  _56
REMARK   24  A    between atoms: _56  and  _57
REMARK   25  A    between atoms: _56  and  _59
REMARK   26  A    between atoms: _59  and  _60
REMARK   27  A    between atoms: _63  and  _65
REMARK   28  A    between atoms: _65  and  _66
REMARK   29  A    between atoms: _68  and  _70
REMARK   30  A    between atoms: _70  and  _71
REMARK   31  A    between atoms: _74  and  _76
REMARK   32  A    between atoms: _76  and  _77
REMARK   33  A    between atoms: _76  and  _79
REMARK   34  A    between atoms: _79  and  _80
REMARK   35  A    between atoms: _83  and  _85
REMARK   36  A    between atoms: _85  and  _86
REMARK   37  A    between atoms: _85  and  _88
REMARK   38  A    between atoms: _88  and  _89
REMARK   39  A    between atoms: _92  and  _94
REMARK   40  A    between atoms: _94  and  _95
REMARK   41  A    between atoms: _94  and  _97
REMARK   42  A    between atoms: _97  and  _98
REMARK   43  A    between atoms: _101  and  _103
REMARK   44  A    between atoms: _103  and  _104
REMARK   45  A    between atoms: _103  and  _106
REMARK   46  A    between atoms: _109  and  _111
REMARK   47  A    between atoms: _111  and  _112
REMARK   48  A    between atoms: _111  and  _114
REMARK   49  A    between atoms: _114  and  _115
REMARK   50  A    between atoms: _115  and  _116
REMARK   51  A    between atoms: _116  and  _117
REMARK   52  A    between atoms: _117  and  _118
REMARK   53  A    between atoms: _122  and  _124
REMARK   54  A    between atoms: _124  and  _125
REMARK   55  A    between atoms: _124  and  _127
REMARK   56  A    between atoms: _127  and  _128
REMARK   57  A    between atoms: _128  and  _129
REMARK   58  A    between atoms: _131  and  _133
REMARK   59  A    between atoms: _133  and  _134
REMARK   60  A    between atoms: _133  and  _136
REMARK   61  A    between atoms: _136  and  _137
REMARK   62  A    between atoms: _140  and  _142
REMARK   63  A    between atoms: _142  and  _143
REMARK   64  A    between atoms: _145  and  _147
REMARK   65  A    between atoms: _147  and  _148
REMARK   66  A    between atoms: _150  and  _152
REMARK   67  A    between atoms: _152  and  _153
REMARK   68  A    between atoms: _152  and  _155
REMARK   69  A    between atoms: _158  and  _160
REMARK   70  A    between atoms: _160  and  _161
REMARK   71  A    between atoms: _163  and  _165
REMARK   72  A    between atoms: _165  and  _166
REMARK   73  A    between atoms: _168  and  _170
REMARK   74  A    between atoms: _170  and  _171
REMARK   75  A    between atoms: _170  and  _173
REMARK   76  A    between atoms: _173  and  _174
REMARK   77  A    between atoms: _180  and  _182
REMARK   78  A    between atoms: _182  and  _183
REMARK   79  A    between atoms: _182  and  _185
REMARK   80  A    between atoms: _185  and  _186
REMARK   81  A    between atoms: _189  and  _191
REMARK   82  A    between atoms: _191  and  _192
REMARK   83  A    between atoms: _191  and  _194
REMARK   84  A    between atoms: _194  and  _195
REMARK   85  A    between atoms: _198  and  _200
REMARK   86  A    between atoms: _200  and  _201
REMARK   87  A    between atoms: _200  and  _203
REMARK   88  A    between atoms: _203  and  _204
REMARK   89  A    between atoms: _208  and  _209
REMARK   90  A    between atoms: _214  and  _216
REMARK   91  A    between atoms: _216  and  _217
REMARK   92  A    between atoms: _216  and  _219
REMARK   93  A    between atoms: _222  and  _224
REMARK   94  A    between atoms: _224  and  _225
REMARK   95  A    between atoms: _224  and  _227
REMARK   96  A    between atoms: _227  and  _228
REMARK   97  A    between atoms: _233  and  _235
REMARK   98  A    between atoms: _235  and  _236
REMARK   99  A    between atoms: _235  and  _238
REMARK  100  A    between atoms: _238  and  _239
REMARK  101  A    between atoms: _242  and  _244
REMARK  102  A    between atoms: _244  and  _245
REMARK  103  A    between atoms: _244  and  _247
REMARK  104  A    between atoms: _247  and  _248
REMARK  105  A    between atoms: _251  and  _253
REMARK  106  A    between atoms: _253  and  _254
REMARK  107  A    between atoms: _256  and  _258
REMARK  108  A    between atoms: _258  and  _259
REMARK  109  A    between atoms: _258  and  _261
REMARK  110  A    between atoms: _261  and  _262
REMARK  111  A    between atoms: _262  and  _263
REMARK  112  A    between atoms: _263  and  _264
REMARK  113  A    between atoms: _273  and  _275
REMARK  114  A    between atoms: _275  and  _276
REMARK  115  A    between atoms: _275  and  _278
REMARK  116  A    between atoms: _278  and  _279
REMARK  117  A    between atoms: _284  and  _286
REMARK  118  A    between atoms: _286  and  _287
REMARK  119  A    between atoms: _286  and  _289
REMARK  120  A    between atoms: _289  and  _290
REMARK  121  A    between atoms: _290  and  _291
REMARK  122  A    between atoms: _291  and  _292
REMARK  123  A    between atoms: _302  and  _303
REMARK  124  A    between atoms: _308  and  _310
REMARK  125  A    between atoms: _310  and  _311
REMARK  126  A    between atoms: _310  and  _313
REMARK  127  A    between atoms: _313  and  _314
REMARK  128  A    between atoms: _317  and  _319
REMARK  129  A    between atoms: _319  and  _320
REMARK  130  A    between atoms: _319  and  _322
REMARK  131  A    between atoms: _322  and  _323
REMARK  132  A    between atoms: _326  and  _328
REMARK  133  A    between atoms: _328  and  _329
REMARK  134  A    between atoms: _328  and  _331
REMARK  135  A    between atoms: _331  and  _332
REMARK  136  A    between atoms: _335  and  _337
REMARK  137  A    between atoms: _337  and  _338
REMARK  138  A    between atoms: _337  and  _340
REMARK  139  A    between atoms: _340  and  _341
REMARK  140  A    between atoms: _344  and  _346
REMARK  141  A    between atoms: _346  and  _347
REMARK  142  A    between atoms: _346  and  _349
REMARK  143  A    between atoms: _349  and  _350
REMARK  144  A    between atoms: _353  and  _355
REMARK  145  A    between atoms: _355  and  _356
REMARK  146  A    between atoms: _358  and  _360
REMARK  147  A    between atoms: _360  and  _361
REMARK  148  A    between atoms: _364  and  _366
REMARK  149  A    between atoms: _366  and  _367
REMARK  150  A    between atoms: _366  and  _369
REMARK  151  A    between atoms: _369  and  _370
REMARK  152  A    between atoms: _373  and  _375
REMARK  153  A    between atoms: _375  and  _376
REMARK  154  A    between atoms: _375  and  _378
REMARK  155  A    between atoms: _378  and  _379
REMARK  156  A    between atoms: _382  and  _384
REMARK  157  A    between atoms: _384  and  _385
REMARK  158  A    between atoms: _384  and  _387
REMARK  159  A    between atoms: _387  and  _388
REMARK  160  A    between atoms: _391  and  _393
REMARK  161  A    between atoms: _393  and  _394
REMARK  162  A    between atoms: _393  and  _396
REMARK  163  A    between atoms: _399  and  _401
REMARK  164  A    between atoms: _401  and  _402
REMARK  165  A    between atoms: _401  and  _404
REMARK  166  A    between atoms: _404  and  _405
REMARK  167  A    between atoms: _408  and  _410
REMARK  168  A    between atoms: _410  and  _411
REMARK  169  A    between atoms: _410  and  _413
REMARK  170  A    between atoms: _413  and  _414
REMARK  171  A    between atoms: _417  and  _419
REMARK  172  A    between atoms: _419  and  _420
REMARK  173  A    between atoms: _422  and  _424
REMARK  174  A    between atoms: _424  and  _425
REMARK  175  A    between atoms: _427  and  _429
REMARK  176  A    between atoms: _429  and  _430
REMARK  177  A    between atoms: _429  and  _432
REMARK  178  A    between atoms: _435  and  _437
REMARK  179  A    between atoms: _437  and  _438
REMARK  180  A    between atoms: _440  and  _442
REMARK  181  A    between atoms: _442  and  _443
REMARK  182  A    between atoms: _445  and  _447
REMARK  183  A    between atoms: _447  and  _448
REMARK  184  A    between atoms: _447  and  _450
REMARK  185  A    between atoms: _450  and  _451
REMARK  186  A    between atoms: _457  and  _459
REMARK  187  A    between atoms: _459  and  _460
REMARK  188  A    between atoms: _459  and  _462
REMARK  189  A    between atoms: _462  and  _463
REMARK  190  A    between atoms: _466  and  _468
REMARK  191  A    between atoms: _468  and  _469
REMARK  192  A    between atoms: _468  and  _471
REMARK  193  A    between atoms: _474  and  _476
REMARK  194  A    between atoms: _476  and  _477
REMARK  195  A    between atoms: _476  and  _479
REMARK  196  A    between atoms: _479  and  _480
REMARK  197  A    between atoms: _483  and  _485
REMARK  198  A    between atoms: _485  and  _486
REMARK  199  A    between atoms: _485  and  _488
REMARK  200  A    between atoms: _488  and  _489
REMARK  201  A    between atoms: _493  and  _494
REMARK  202  A    between atoms: _499  and  _501
REMARK  203  A    between atoms: _501  and  _502
REMARK  204  A    between atoms: _501  and  _504
REMARK  205  A    between atoms: _507  and  _509
REMARK  206  A    between atoms: _509  and  _510
REMARK  207  A    between atoms: _509  and  _512
REMARK  208  A    between atoms: _512  and  _513
REMARK  209  A    between atoms: _518  and  _520
REMARK  210  A    between atoms: _520  and  _521
REMARK  211  A    between atoms: _520  and  _523
REMARK  212  A    between atoms: _523  and  _524
REMARK  213  A    between atoms: _527  and  _529
REMARK  214  A    between atoms: _529  and  _530
REMARK  215  A    between atoms: _529  and  _532
REMARK  216  A    between atoms: _532  and  _533
REMARK  217  A    between atoms: _536  and  _538
REMARK  218  A    between atoms: _538  and  _539
REMARK  219  A    between atoms: _541  and  _543
REMARK  220  A    between atoms: _543  and  _544
REMARK  221  A    between atoms: _543  and  _546
REMARK  222  A    between atoms: _546  and  _547
REMARK  223  A    between atoms: _547  and  _548
REMARK  224  A    between atoms: _548  and  _549
REMARK                            x       y       z     vdW  Elec       q    Type
REMARK                         _______ _______ _______ _____ _____    ______ ____
ROOT
ATOM      1  O   HOH     1     -27.067  18.178  18.552  0.00  0.00    +0.000 OA
ENDROOT
TORSDOF 0
REMARK  Name = ../refined-set-2016/2o4l/2o4l_pocket.pdb
REMARK  224 active torsions:
REMARK  status: ('A' for Active; 'I' for Inactive)
REMARK    1  A    between atoms: _1  and  _3
REMARK    2  A    between atoms: _3  and  _4
REMARK    3  A    between atoms: _3  and  _6
REMARK    4  A    between atoms: _6  and  _7
REMARK    5  A    between atoms: _7  and  _8
REMARK    6  A    between atoms: _8  and  _9
REMARK    7  A    between atoms: _18  and  _20
REMARK    8  A    between atoms: _20  and  _21
REMARK    9  A    between atoms: _20  and  _23
REMARK   10  A    between atoms: _23  and  _24
REMARK   11  A    between atoms: _27  and  _29
REMARK   12  A    between atoms: _29  and  _30
REMARK   13  A    between atoms: _29  and  _32
REMARK   14  A    between atoms: _32  and  _33
REMARK   15  A    between atoms: _36  and  _38
REMARK   16  A    between atoms: _38  and  _39
REMARK   17  A    between atoms: _38  and  _41
REMARK   18  A    between atoms: _41  and  _42
REMARK   19  A    between atoms: _45  and  _47
REMARK   20  A    between atoms: _47  and  _48
REMARK   21  A    between atoms: _47  and  _50
REMARK   22  A    between atoms: _50  and  _51
REMARK   23  A    between atoms: _54  and  _56
REMARK   24  A    between atoms: _56  and  _57
REMARK   25  A    between atoms: _56  and  _59
REMARK   26  A    between atoms: _59  and  _60
REMARK   27  A    between atoms: _63  and  _65
REMARK   28  A    between atoms: _65  and  _66
REMARK   29  A    between atoms: _68  and  _70
REMARK   30  A    between atoms: _70  and  _71
REMARK   31  A    between atoms: _74  and  _76
REMARK   32  A    between atoms: _76  and  _77
REMARK   33  A    between atoms: _76  and  _79
REMARK   34  A    between atoms: _79  and  _80
REMARK   35  A    between atoms: _83  and  _85
REMARK   36  A    between atoms: _85  and  _86
REMARK   37  A    between atoms: _85  and  _88
REMARK   38  A    between atoms: _88  and  _89
REMARK   39  A    between atoms: _92  and  _94
REMARK   40  A    between atoms: _94  and  _95
REMARK   41  A    between atoms: _94  and  _97
REMARK   42  A    between atoms: _97  and  _98
REMARK   43  A    between atoms: _101  and  _103
REMARK   44  A    between atoms: _103  and  _104
REMARK   45  A    between atoms: _103  and  _106
REMARK   46  A    between atoms: _109  and  _111
REMARK   47  A    between atoms: _111  and  _112
REMARK   48  A    between atoms: _111  and  _114
REMARK   49  A    between atoms: _114  and  _115
REMARK   50  A    between atoms: _115  and  _116
REMARK   51  A    between atoms: _116  and  _117
REMARK   52  A    between atoms: _117  and  _118
REMARK   53  A    between atoms: _122  and  _124
REMARK   54  A    between atoms: _124  and  _125
REMARK   55  A    between atoms: _124  and  _127
REMARK   56  A    between atoms: _127  and  _128
REMARK   57  A    between atoms: _128  and  _129
REMARK   58  A    between atoms: _131  and  _133
REMARK   59  A    between atoms: _133  and  _134
REMARK   60  A    between atoms: _133  and  _136
REMARK   61  A    between atoms: _136  and  _137
REMARK   62  A    between atoms: _140  and  _142
REMARK   63  A    between atoms: _142  and  _143
REMARK   64  A    between atoms: _145  and  _147
REMARK   65  A    between atoms: _147  and  _148
REMARK   66  A    between atoms: _150  and  _152
REMARK   67  A    between atoms: _152  and  _153
REMARK   68  A    between atoms: _152  and  _155
REMARK   69  A    between atoms: _158  and  _160
REMARK   70  A    between atoms: _160  and  _161
REMARK   71  A    between atoms: _163  and  _165
REMARK   72  A    between atoms: _165  and  _166
REMARK   73  A    between atoms: _168  and  _170
REMARK   74  A    between atoms: _170  and  _171
REMARK   75  A    between atoms: _170  and  _173
REMARK   76  A    between atoms: _173  and  _174
REMARK   77  A    between atoms: _180  and  _182
REMARK   78  A    between atoms: _182  and  _183
REMARK   79  A    between atoms: _182  and  _185
REMARK   80  A    between atoms: _185  and  _186
REMARK   81  A    between atoms: _189  and  _191
REMARK   82  A    between atoms: _191  and  _192
REMARK   83  A    between atoms: _191  and  _194
REMARK   84  A    between atoms: _194  and  _195
REMARK   85  A    between atoms: _198  and  _200
REMARK   86  A    between atoms: _200  and  _201
REMARK   87  A    between atoms: _200  and  _203
REMARK   88  A    between atoms: _203  and  _204
REMARK   89  A    between atoms: _208  and  _209
REMARK   90  A    between atoms: _214  and  _216
REMARK   91  A    between atoms: _216  and  _217
REMARK   92  A    between atoms: _216  and  _219
REMARK   93  A    between atoms: _222  and  _224
REMARK   94  A    between atoms: _224  and  _225
REMARK   95  A    between atoms: _224  and  _227
REMARK   96  A    between atoms: _227  and  _228
REMARK   97  A    between atoms: _233  and  _235
REMARK   98  A    between atoms: _235  and  _236
REMARK   99  A    between atoms: _235  and  _238
REMARK  100  A    between atoms: _238  and  _239
REMARK  101  A    between atoms: _242  and  _244
REMARK  102  A    between atoms: _244  and  _245
REMARK  103  A    between atoms: _244  and  _247
REMARK  104  A    between atoms: _247  and  _248
REMARK  105  A    between atoms: _251  and  _253
REMARK  106  A    between atoms: _253  and  _254
REMARK  107  A    between atoms: _256  and  _258
REMARK  108  A    between atoms: _258  and  _259
REMARK  109  A    between atoms: _258  and  _261
REMARK  110  A    between atoms: _261  and  _262
REMARK  111  A    between atoms: _262  and  _263
REMARK  112  A    between atoms: _263  and  _264
REMARK  113  A    between atoms: _273  and  _275
REMARK  114  A    between atoms: _275  and  _276
REMARK  115  A    between atoms: _275  and  _278
REMARK  116  A    between atoms: _278  and  _279
REMARK  117  A    between atoms: _284  and  _286
REMARK  118  A    between atoms: _286  and  _287
REMARK  119  A    between atoms: _286  and  _289
REMARK  120  A    between atoms: _289  and  _290
REMARK  121  A    between atoms: _290  and  _291
REMARK  122  A    between atoms: _291  and  _292
REMARK  123  A    between atoms: _302  and  _303
REMARK  124  A    between atoms: _308  and  _310
REMARK  125  A    between atoms: _310  and  _311
REMARK  126  A    between atoms: _310  and  _313
REMARK  127  A    between atoms: _313  and  _314
REMARK  128  A    between atoms: _317  and  _319
REMARK  129  A    between atoms: _319  and  _320
REMARK  130  A    between atoms: _319  and  _322
REMARK  131  A    between atoms: _322  and  _323
REMARK  132  A    between atoms: _326  and  _328
REMARK  133  A    between atoms: _328  and  _329
REMARK  134  A    between atoms: _328  and  _331
REMARK  135  A    between atoms: _331  and  _332
REMARK  136  A    between atoms: _335  and  _337
REMARK  137  A    between atoms: _337  and  _338
REMARK  138  A    between atoms: _337  and  _340
REMARK  139  A    between atoms: _340  and  _341
REMARK  140  A    between atoms: _344  and  _346
REMARK  141  A    between atoms: _346  and  _347
REMARK  142  A    between atoms: _346  and  _349
REMARK  143  A    between atoms: _349  and  _350
REMARK  144  A    between atoms: _353  and  _355
REMARK  145  A    between atoms: _355  and  _356
REMARK  146  A    between atoms: _358  and  _360
REMARK  147  A    between atoms: _360  and  _361
REMARK  148  A    between atoms: _364  and  _366
REMARK  149  A    between atoms: _366  and  _367
REMARK  150  A    between atoms: _366  and  _369
REMARK  151  A    between atoms: _369  and  _370
REMARK  152  A    between atoms: _373  and  _375
REMARK  153  A    between atoms: _375  and  _376
REMARK  154  A    between atoms: _375  and  _378
REMARK  155  A    between atoms: _378  and  _379
REMARK  156  A    between atoms: _382  and  _384
REMARK  157  A    between atoms: _384  and  _385
REMARK  158  A    between atoms: _384  and  _387
REMARK  159  A    between atoms: _387  and  _388
REMARK  160  A    between atoms: _391  and  _393
REMARK  161  A    between atoms: _393  and  _394
REMARK  162  A    between atoms: _393  and  _396
REMARK  163  A    between atoms: _399  and  _401
REMARK  164  A    between atoms: _401  and  _402
REMARK  165  A    between atoms: _401  and  _404
REMARK  166  A    between atoms: _404  and  _405
REMARK  167  A    between atoms: _408  and  _410
REMARK  168  A    between atoms: _410  and  _411
REMARK  169  A    between atoms: _410  and  _413
REMARK  170  A    between atoms: _413  and  _414
REMARK  171  A    between atoms: _417  and  _419
REMARK  172  A    between atoms: _419  and  _420
REMARK  173  A    between atoms: _422  and  _424
REMARK  174  A    between atoms: _424  and  _425
REMARK  175  A    between atoms: _427  and  _429
REMARK  176  A    between atoms: _429  and  _430
REMARK  177  A    between atoms: _429  and  _432
REMARK  178  A    between atoms: _435  and  _437
REMARK  179  A    between atoms: _437  and  _438
REMARK  180  A    between atoms: _440  and  _442
REMARK  181  A    between atoms: _442  and  _443
REMARK  182  A    between atoms: _445  and  _447
REMARK  183  A    between atoms: _447  and  _448
REMARK  184  A    between atoms: _447  and  _450
REMARK  185  A    between atoms: _450  and  _451
REMARK  186  A    between atoms: _457  and  _459
REMARK  187  A    between atoms: _459  and  _460
REMARK  188  A    between atoms: _459  and  _462
REMARK  189  A    between atoms: _462  and  _463
REMARK  190  A    between atoms: _466  and  _468
REMARK  191  A    between atoms: _468  and  _469
REMARK  192  A    between atoms: _468  and  _471
REMARK  193  A    between atoms: _474  and  _476
REMARK  194  A    between atoms: _476  and  _477
REMARK  195  A    between atoms: _476  and  _479
REMARK  196  A    between atoms: _479  and  _480
REMARK  197  A    between atoms: _483  and  _485
REMARK  198  A    between atoms: _485  and  _486
REMARK  199  A    between atoms: _485  and  _488
REMARK  200  A    between atoms: _488  and  _489
REMARK  201  A    between atoms: _493  and  _494
REMARK  202  A    between atoms: _499  and  _501
REMARK  203  A    between atoms: _501  and  _502
REMARK  204  A    between atoms: _501  and  _504
REMARK  205  A    between atoms: _507  and  _509
REMARK  206  A    between atoms: _509  and  _510
REMARK  207  A    between atoms: _509  and  _512
REMARK  208  A    between atoms: _512  and  _513
REMARK  209  A    between atoms: _518  and  _520
REMARK  210  A    between atoms: _520  and  _521
REMARK  211  A    between atoms: _520  and  _523
REMARK  212  A    between atoms: _523  and  _524
REMARK  213  A    between atoms: _527  and  _529
REMARK  214  A    between atoms: _529  and  _530
REMARK  215  A    between atoms: _529  and  _532
REMARK  216  A    between atoms: _532  and  _533
REMARK  217  A    between atoms: _536  and  _538
REMARK  218  A    between atoms: _538  and  _539
REMARK  219  A    between atoms: _541  and  _543
REMARK  220  A    between atoms: _543  and  _544
REMARK  221  A    between atoms: _543  and  _546
REMARK  222  A    between atoms: _546  and  _547
REMARK  223  A    between atoms: _547  and  _548
REMARK  224  A    between atoms: _548  and  _549
REMARK                            x       y       z     vdW  Elec       q    Type
REMARK                         _______ _______ _______ _____ _____    ______ ____
ROOT
ATOM      1  O   HOH     1      -8.368  27.058  12.791  0.00  0.00    +0.000 OA
ENDROOT
TORSDOF 0
REMARK  Name = ../refined-set-2016/2o4l/2o4l_pocket.pdb
REMARK  224 active torsions:
REMARK  status: ('A' for Active; 'I' for Inactive)
REMARK    1  A    between atoms: _1  and  _3
REMARK    2  A    between atoms: _3  and  _4
REMARK    3  A    between atoms: _3  and  _6
REMARK    4  A    between atoms: _6  and  _7
REMARK    5  A    between atoms: _7  and  _8
REMARK    6  A    between atoms: _8  and  _9
REMARK    7  A    between atoms: _18  and  _20
REMARK    8  A    between atoms: _20  and  _21
REMARK    9  A    between atoms: _20  and  _23
REMARK   10  A    between atoms: _23  and  _24
REMARK   11  A    between atoms: _27  and  _29
REMARK   12  A    between atoms: _29  and  _30
REMARK   13  A    between atoms: _29  and  _32
REMARK   14  A    between atoms: _32  and  _33
REMARK   15  A    between atoms: _36  and  _38
REMARK   16  A    between atoms: _38  and  _39
REMARK   17  A    between atoms: _38  and  _41
REMARK   18  A    between atoms: _41  and  _42
REMARK   19  A    between atoms: _45  and  _47
REMARK   20  A    between atoms: _47  and  _48
REMARK   21  A    between atoms: _47  and  _50
REMARK   22  A    between atoms: _50  and  _51
REMARK   23  A    between atoms: _54  and  _56
REMARK   24  A    between atoms: _56  and  _57
REMARK   25  A    between atoms: _56  and  _59
REMARK   26  A    between atoms: _59  and  _60
REMARK   27  A    between atoms: _63  and  _65
REMARK   28  A    between atoms: _65  and  _66
REMARK   29  A    between atoms: _68  and  _70
REMARK   30  A    between atoms: _70  and  _71
REMARK   31  A    between atoms: _74  and  _76
REMARK   32  A    between atoms: _76  and  _77
REMARK   33  A    between atoms: _76  and  _79
REMARK   34  A    between atoms: _79  and  _80
REMARK   35  A    between atoms: _83  and  _85
REMARK   36  A    between atoms: _85  and  _86
REMARK   37  A    between atoms: _85  and  _88
REMARK   38  A    between atoms: _88  and  _89
REMARK   39  A    between atoms: _92  and  _94
REMARK   40  A    between atoms: _94  and  _95
REMARK   41  A    between atoms: _94  and  _97
REMARK   42  A    between atoms: _97  and  _98
REMARK   43  A    between atoms: _101  and  _103
REMARK   44  A    between atoms: _103  and  _104
REMARK   45  A    between atoms: _103  and  _106
REMARK   46  A    between atoms: _109  and  _111
REMARK   47  A    between atoms: _111  and  _112
REMARK   48  A    between atoms: _111  and  _114
REMARK   49  A    between atoms: _114  and  _115
REMARK   50  A    between atoms: _115  and  _116
REMARK   51  A    between atoms: _116  and  _117
REMARK   52  A    between atoms: _117  and  _118
REMARK   53  A    between atoms: _122  and  _124
REMARK   54  A    between atoms: _124  and  _125
REMARK   55  A    between atoms: _124  and  _127
REMARK   56  A    between atoms: _127  and  _128
REMARK   57  A    between atoms: _128  and  _129
REMARK   58  A    between atoms: _131  and  _133
REMARK   59  A    between atoms: _133  and  _134
REMARK   60  A    between atoms: _133  and  _136
REMARK   61  A    between atoms: _136  and  _137
REMARK   62  A    between atoms: _140  and  _142
REMARK   63  A    between atoms: _142  and  _143
REMARK   64  A    between atoms: _145  and  _147
REMARK   65  A    between atoms: _147  and  _148
REMARK   66  A    between atoms: _150  and  _152
REMARK   67  A    between atoms: _152  and  _153
REMARK   68  A    between atoms: _152  and  _155
REMARK   69  A    between atoms: _158  and  _160
REMARK   70  A    between atoms: _160  and  _161
REMARK   71  A    between atoms: _163  and  _165
REMARK   72  A    between atoms: _165  and  _166
REMARK   73  A    between atoms: _168  and  _170
REMARK   74  A    between atoms: _170  and  _171
REMARK   75  A    between atoms: _170  and  _173
REMARK   76  A    between atoms: _173  and  _174
REMARK   77  A    between atoms: _180  and  _182
REMARK   78  A    between atoms: _182  and  _183
REMARK   79  A    between atoms: _182  and  _185
REMARK   80  A    between atoms: _185  and  _186
REMARK   81  A    between atoms: _189  and  _191
REMARK   82  A    between atoms: _191  and  _192
REMARK   83  A    between atoms: _191  and  _194
REMARK   84  A    between atoms: _194  and  _195
REMARK   85  A    between atoms: _198  and  _200
REMARK   86  A    between atoms: _200  and  _201
REMARK   87  A    between atoms: _200  and  _203
REMARK   88  A    between atoms: _203  and  _204
REMARK   89  A    between atoms: _208  and  _209
REMARK   90  A    between atoms: _214  and  _216
REMARK   91  A    between atoms: _216  and  _217
REMARK   92  A    between atoms: _216  and  _219
REMARK   93  A    between atoms: _222  and  _224
REMARK   94  A    between atoms: _224  and  _225
REMARK   95  A    between atoms: _224  and  _227
REMARK   96  A    between atoms: _227  and  _228
REMARK   97  A    between atoms: _233  and  _235
REMARK   98  A    between atoms: _235  and  _236
REMARK   99  A    between atoms: _235  and  _238
REMARK  100  A    between atoms: _238  and  _239
REMARK  101  A    between atoms: _242  and  _244
REMARK  102  A    between atoms: _244  and  _245
REMARK  103  A    between atoms: _244  and  _247
REMARK  104  A    between atoms: _247  and  _248
REMARK  105  A    between atoms: _251  and  _253
REMARK  106  A    between atoms: _253  and  _254
REMARK  107  A    between atoms: _256  and  _258
REMARK  108  A    between atoms: _258  and  _259
REMARK  109  A    between atoms: _258  and  _261
REMARK  110  A    between atoms: _261  and  _262
REMARK  111  A    between atoms: _262  and  _263
REMARK  112  A    between atoms: _263  and  _264
REMARK  113  A    between atoms: _273  and  _275
REMARK  114  A    between atoms: _275  and  _276
REMARK  115  A    between atoms: _275  and  _278
REMARK  116  A    between atoms: _278  and  _279
REMARK  117  A    between atoms: _284  and  _286
REMARK  118  A    between atoms: _286  and  _287
REMARK  119  A    between atoms: _286  and  _289
REMARK  120  A    between atoms: _289  and  _290
REMARK  121  A    between atoms: _290  and  _291
REMARK  122  A    between atoms: _291  and  _292
REMARK  123  A    between atoms: _302  and  _303
REMARK  124  A    between atoms: _308  and  _310
REMARK  125  A    between atoms: _310  and  _311
REMARK  126  A    between atoms: _310  and  _313
REMARK  127  A    between atoms: _313  and  _314
REMARK  128  A    between atoms: _317  and  _319
REMARK  129  A    between atoms: _319  and  _320
REMARK  130  A    between atoms: _319  and  _322
REMARK  131  A    between atoms: _322  and  _323
REMARK  132  A    between atoms: _326  and  _328
REMARK  133  A    between atoms: _328  and  _329
REMARK  134  A    between atoms: _328  and  _331
REMARK  135  A    between atoms: _331  and  _332
REMARK  136  A    between atoms: _335  and  _337
REMARK  137  A    between atoms: _337  and  _338
REMARK  138  A    between atoms: _337  and  _340
REMARK  139  A    between atoms: _340  and  _341
REMARK  140  A    between atoms: _344  and  _346
REMARK  141  A    between atoms: _346  and  _347
REMARK  142  A    between atoms: _346  and  _349
REMARK  143  A    between atoms: _349  and  _350
REMARK  144  A    between atoms: _353  and  _355
REMARK  145  A    between atoms: _355  and  _356
REMARK  146  A    between atoms: _358  and  _360
REMARK  147  A    between atoms: _360  and  _361
REMARK  148  A    between atoms: _364  and  _366
REMARK  149  A    between atoms: _366  and  _367
REMARK  150  A    between atoms: _366  and  _369
REMARK  151  A    between atoms: _369  and  _370
REMARK  152  A    between atoms: _373  and  _375
REMARK  153  A    between atoms: _375  and  _376
REMARK  154  A    between atoms: _375  and  _378
REMARK  155  A    between atoms: _378  and  _379
REMARK  156  A    between atoms: _382  and  _384
REMARK  157  A    between atoms: _384  and  _385
REMARK  158  A    between atoms: _384  and  _387
REMARK  159  A    between atoms: _387  and  _388
REMARK  160  A    between atoms: _391  and  _393
REMARK  161  A    between atoms: _393  and  _394
REMARK  162  A    between atoms: _393  and  _396
REMARK  163  A    between atoms: _399  and  _401
REMARK  164  A    between atoms: _401  and  _402
REMARK  165  A    between atoms: _401  and  _404
REMARK  166  A    between atoms: _404  and  _405
REMARK  167  A    between atoms: _408  and  _410
REMARK  168  A    between atoms: _410  and  _411
REMARK  169  A    between atoms: _410  and  _413
REMARK  170  A    between atoms: _413  and  _414
REMARK  171  A    between atoms: _417  and  _419
REMARK  172  A    between atoms: _419  and  _420
REMARK  173  A    between atoms: _422  and  _424
REMARK  174  A    between atoms: _424  and  _425
REMARK  175  A    between atoms: _427  and  _429
REMARK  176  A    between atoms: _429  and  _430
REMARK  177  A    between atoms: _429  and  _432
REMARK  178  A    between atoms: _435  and  _437
REMARK  179  A    between atoms: _437  and  _438
REMARK  180  A    between atoms: _440  and  _442
REMARK  181  A    between atoms: _442  and  _443
REMARK  182  A    between atoms: _445  and  _447
REMARK  183  A    between atoms: _447  and  _448
REMARK  184  A    between atoms: _447  and  _450
REMARK  185  A    between atoms: _450  and  _451
REMARK  186  A    between atoms: _457  and  _459
REMARK  187  A    between atoms: _459  and  _460
REMARK  188  A    between atoms: _459  and  _462
REMARK  189  A    between atoms: _462  and  _463
REMARK  190  A    between atoms: _466  and  _468
REMARK  191  A    between atoms: _468  and  _469
REMARK  192  A    between atoms: _468  and  _471
REMARK  193  A    between atoms: _474  and  _476
REMARK  194  A    between atoms: _476  and  _477
REMARK  195  A    between atoms: _476  and  _479
REMARK  196  A    between atoms: _479  and  _480
REMARK  197  A    between atoms: _483  and  _485
REMARK  198  A    between atoms: _485  and  _486
REMARK  199  A    between atoms: _485  and  _488
REMARK  200  A    between atoms: _488  and  _489
REMARK  201  A    between atoms: _493  and  _494
REMARK  202  A    between atoms: _499  and  _501
REMARK  203  A    between atoms: _501  and  _502
REMARK  204  A    between atoms: _501  and  _504
REMARK  205  A    between atoms: _507  and  _509
REMARK  206  A    between atoms: _509  and  _510
REMARK  207  A    between atoms: _509  and  _512
REMARK  208  A    between atoms: _512  and  _513
REMARK  209  A    between atoms: _518  and  _520
REMARK  210  A    between atoms: _520  and  _521
REMARK  211  A    between atoms: _520  and  _523
REMARK  212  A    between atoms: _523  and  _524
REMARK  213  A    between atoms: _527  and  _529
REMARK  214  A    between atoms: _529  and  _530
REMARK  215  A    between atoms: _529  and  _532
REMARK  216  A    between atoms: _532  and  _533
REMARK  217  A    between atoms: _536  and  _538
REMARK  218  A    between atoms: _538  and  _539
REMARK  219  A    between atoms: _541  and  _543
REMARK  220  A    between atoms: _543  and  _544
REMARK  221  A    between atoms: _543  and  _546
REMARK  222  A    between atoms: _546  and  _547
REMARK  223  A    between atoms: _547  and  _548
REMARK  224  A    between atoms: _548  and  _549
REMARK                            x       y       z     vdW  Elec       q    Type
REMARK                         _______ _______ _______ _____ _____    ______ ____
ROOT
ATOM      1  O   HOH     1      -6.709  19.916   8.642  0.00  0.00    +0.000 OA
ENDROOT
TORSDOF 0
REMARK  Name = ../refined-set-2016/2o4l/2o4l_pocket.pdb
REMARK  224 active torsions:
REMARK  status: ('A' for Active; 'I' for Inactive)
REMARK    1  A    between atoms: _1  and  _3
REMARK    2  A    between atoms: _3  and  _4
REMARK    3  A    between atoms: _3  and  _6
REMARK    4  A    between atoms: _6  and  _7
REMARK    5  A    between atoms: _7  and  _8
REMARK    6  A    between atoms: _8  and  _9
REMARK    7  A    between atoms: _18  and  _20
REMARK    8  A    between atoms: _20  and  _21
REMARK    9  A    between atoms: _20  and  _23
REMARK   10  A    between atoms: _23  and  _24
REMARK   11  A    between atoms: _27  and  _29
REMARK   12  A    between atoms: _29  and  _30
REMARK   13  A    between atoms: _29  and  _32
REMARK   14  A    between atoms: _32  and  _33
REMARK   15  A    between atoms: _36  and  _38
REMARK   16  A    between atoms: _38  and  _39
REMARK   17  A    between atoms: _38  and  _41
REMARK   18  A    between atoms: _41  and  _42
REMARK   19  A    between atoms: _45  and  _47
REMARK   20  A    between atoms: _47  and  _48
REMARK   21  A    between atoms: _47  and  _50
REMARK   22  A    between atoms: _50  and  _51
REMARK   23  A    between atoms: _54  and  _56
REMARK   24  A    between atoms: _56  and  _57
REMARK   25  A    between atoms: _56  and  _59
REMARK   26  A    between atoms: _59  and  _60
REMARK   27  A    between atoms: _63  and  _65
REMARK   28  A    between atoms: _65  and  _66
REMARK   29  A    between atoms: _68  and  _70
REMARK   30  A    between atoms: _70  and  _71
REMARK   31  A    between atoms: _74  and  _76
REMARK   32  A    between atoms: _76  and  _77
REMARK   33  A    between atoms: _76  and  _79
REMARK   34  A    between atoms: _79  and  _80
REMARK   35  A    between atoms: _83  and  _85
REMARK   36  A    between atoms: _85  and  _86
REMARK   37  A    between atoms: _85  and  _88
REMARK   38  A    between atoms: _88  and  _89
REMARK   39  A    between atoms: _92  and  _94
REMARK   40  A    between atoms: _94  and  _95
REMARK   41  A    between atoms: _94  and  _97
REMARK   42  A    between atoms: _97  and  _98
REMARK   43  A    between atoms: _101  and  _103
REMARK   44  A    between atoms: _103  and  _104
REMARK   45  A    between atoms: _103  and  _106
REMARK   46  A    between atoms: _109  and  _111
REMARK   47  A    between atoms: _111  and  _112
REMARK   48  A    between atoms: _111  and  _114
REMARK   49  A    between atoms: _114  and  _115
REMARK   50  A    between atoms: _115  and  _116
REMARK   51  A    between atoms: _116  and  _117
REMARK   52  A    between atoms: _117  and  _118
REMARK   53  A    between atoms: _122  and  _124
REMARK   54  A    between atoms: _124  and  _125
REMARK   55  A    between atoms: _124  and  _127
REMARK   56  A    between atoms: _127  and  _128
REMARK   57  A    between atoms: _128  and  _129
REMARK   58  A    between atoms: _131  and  _133
REMARK   59  A    between atoms: _133  and  _134
REMARK   60  A    between atoms: _133  and  _136
REMARK   61  A    between atoms: _136  and  _137
REMARK   62  A    between atoms: _140  and  _142
REMARK   63  A    between atoms: _142  and  _143
REMARK   64  A    between atoms: _145  and  _147
REMARK   65  A    between atoms: _147  and  _148
REMARK   66  A    between atoms: _150  and  _152
REMARK   67  A    between atoms: _152  and  _153
REMARK   68  A    between atoms: _152  and  _155
REMARK   69  A    between atoms: _158  and  _160
REMARK   70  A    between atoms: _160  and  _161
REMARK   71  A    between atoms: _163  and  _165
REMARK   72  A    between atoms: _165  and  _166
REMARK   73  A    between atoms: _168  and  _170
REMARK   74  A    between atoms: _170  and  _171
REMARK   75  A    between atoms: _170  and  _173
REMARK   76  A    between atoms: _173  and  _174
REMARK   77  A    between atoms: _180  and  _182
REMARK   78  A    between atoms: _182  and  _183
REMARK   79  A    between atoms: _182  and  _185
REMARK   80  A    between atoms: _185  and  _186
REMARK   81  A    between atoms: _189  and  _191
REMARK   82  A    between atoms: _191  and  _192
REMARK   83  A    between atoms: _191  and  _194
REMARK   84  A    between atoms: _194  and  _195
REMARK   85  A    between atoms: _198  and  _200
REMARK   86  A    between atoms: _200  and  _201
REMARK   87  A    between atoms: _200  and  _203
REMARK   88  A    between atoms: _203  and  _204
REMARK   89  A    between atoms: _208  and  _209
REMARK   90  A    between atoms: _214  and  _216
REMARK   91  A    between atoms: _216  and  _217
REMARK   92  A    between atoms: _216  and  _219
REMARK   93  A    between atoms: _222  and  _224
REMARK   94  A    between atoms: _224  and  _225
REMARK   95  A    between atoms: _224  and  _227
REMARK   96  A    between atoms: _227  and  _228
REMARK   97  A    between atoms: _233  and  _235
REMARK   98  A    between atoms: _235  and  _236
REMARK   99  A    between atoms: _235  and  _238
REMARK  100  A    between atoms: _238  and  _239
REMARK  101  A    between atoms: _242  and  _244
REMARK  102  A    between atoms: _244  and  _245
REMARK  103  A    between atoms: _244  and  _247
REMARK  104  A    between atoms: _247  and  _248
REMARK  105  A    between atoms: _251  and  _253
REMARK  106  A    between atoms: _253  and  _254
REMARK  107  A    between atoms: _256  and  _258
REMARK  108  A    between atoms: _258  and  _259
REMARK  109  A    between atoms: _258  and  _261
REMARK  110  A    between atoms: _261  and  _262
REMARK  111  A    between atoms: _262  and  _263
REMARK  112  A    between atoms: _263  and  _264
REMARK  113  A    between atoms: _273  and  _275
REMARK  114  A    between atoms: _275  and  _276
REMARK  115  A    between atoms: _275  and  _278
REMARK  116  A    between atoms: _278  and  _279
REMARK  117  A    between atoms: _284  and  _286
REMARK  118  A    between atoms: _286  and  _287
REMARK  119  A    between atoms: _286  and  _289
REMARK  120  A    between atoms: _289  and  _290
REMARK  121  A    between atoms: _290  and  _291
REMARK  122  A    between atoms: _291  and  _292
REMARK  123  A    between atoms: _302  and  _303
REMARK  124  A    between atoms: _308  and  _310
REMARK  125  A    between atoms: _310  and  _311
REMARK  126  A    between atoms: _310  and  _313
REMARK  127  A    between atoms: _313  and  _314
REMARK  128  A    between atoms: _317  and  _319
REMARK  129  A    between atoms: _319  and  _320
REMARK  130  A    between atoms: _319  and  _322
REMARK  131  A    between atoms: _322  and  _323
REMARK  132  A    between atoms: _326  and  _328
REMARK  133  A    between atoms: _328  and  _329
REMARK  134  A    between atoms: _328  and  _331
REMARK  135  A    between atoms: _331  and  _332
REMARK  136  A    between atoms: _335  and  _337
REMARK  137  A    between atoms: _337  and  _338
REMARK  138  A    between atoms: _337  and  _340
REMARK  139  A    between atoms: _340  and  _341
REMARK  140  A    between atoms: _344  and  _346
REMARK  141  A    between atoms: _346  and  _347
REMARK  142  A    between atoms: _346  and  _349
REMARK  143  A    between atoms: _349  and  _350
REMARK  144  A    between atoms: _353  and  _355
REMARK  145  A    between atoms: _355  and  _356
REMARK  146  A    between atoms: _358  and  _360
REMARK  147  A    between atoms: _360  and  _361
REMARK  148  A    between atoms: _364  and  _366
REMARK  149  A    between atoms: _366  and  _367
REMARK  150  A    between atoms: _366  and  _369
REMARK  151  A    between atoms: _369  and  _370
REMARK  152  A    between atoms: _373  and  _375
REMARK  153  A    between atoms: _375  and  _376
REMARK  154  A    between atoms: _375  and  _378
REMARK  155  A    between atoms: _378  and  _379
REMARK  156  A    between atoms: _382  and  _384
REMARK  157  A    between atoms: _384  and  _385
REMARK  158  A    between atoms: _384  and  _387
REMARK  159  A    between atoms: _387  and  _388
REMARK  160  A    between atoms: _391  and  _393
REMARK  161  A    between atoms: _393  and  _394
REMARK  162  A    between atoms: _393  and  _396
REMARK  163  A    between atoms: _399  and  _401
REMARK  164  A    between atoms: _401  and  _402
REMARK  165  A    between atoms: _401  and  _404
REMARK  166  A    between atoms: _404  and  _405
REMARK  167  A    between atoms: _408  and  _410
REMARK  168  A    between atoms: _410  and  _411
REMARK  169  A    between atoms: _410  and  _413
REMARK  170  A    between atoms: _413  and  _414
REMARK  171  A    between atoms: _417  and  _419
REMARK  172  A    between atoms: _419  and  _420
REMARK  173  A    between atoms: _422  and  _424
REMARK  174  A    between atoms: _424  and  _425
REMARK  175  A    between atoms: _427  and  _429
REMARK  176  A    between atoms: _429  and  _430
REMARK  177  A    between atoms: _429  and  _432
REMARK  178  A    between atoms: _435  and  _437
REMARK  179  A    between atoms: _437  and  _438
REMARK  180  A    between atoms: _440  and  _442
REMARK  181  A    between atoms: _442  and  _443
REMARK  182  A    between atoms: _445  and  _447
REMARK  183  A    between atoms: _447  and  _448
REMARK  184  A    between atoms: _447  and  _450
REMARK  185  A    between atoms: _450  and  _451
REMARK  186  A    between atoms: _457  and  _459
REMARK  187  A    between atoms: _459  and  _460
REMARK  188  A    between atoms: _459  and  _462
REMARK  189  A    between atoms: _462  and  _463
REMARK  190  A    between atoms: _466  and  _468
REMARK  191  A    between atoms: _468  and  _469
REMARK  192  A    between atoms: _468  and  _471
REMARK  193  A    between atoms: _474  and  _476
REMARK  194  A    between atoms: _476  and  _477
REMARK  195  A    between atoms: _476  and  _479
REMARK  196  A    between atoms: _479  and  _480
REMARK  197  A    between atoms: _483  and  _485
REMARK  198  A    between atoms: _485  and  _486
REMARK  199  A    between atoms: _485  and  _488
REMARK  200  A    between atoms: _488  and  _489
REMARK  201  A    between atoms: _493  and  _494
REMARK  202  A    between atoms: _499  and  _501
REMARK  203  A    between atoms: _501  and  _502
REMARK  204  A    between atoms: _501  and  _504
REMARK  205  A    between atoms: _507  and  _509
REMARK  206  A    between atoms: _509  and  _510
REMARK  207  A    between atoms: _509  and  _512
REMARK  208  A    between atoms: _512  and  _513
REMARK  209  A    between atoms: _518  and  _520
REMARK  210  A    between atoms: _520  and  _521
REMARK  211  A    between atoms: _520  and  _523
REMARK  212  A    between atoms: _523  and  _524
REMARK  213  A    between atoms: _527  and  _529
REMARK  214  A    between atoms: _529  and  _530
REMARK  215  A    between atoms: _529  and  _532
REMARK  216  A    between atoms: _532  and  _533
REMARK  217  A    between atoms: _536  and  _538
REMARK  218  A    between atoms: _538  and  _539
REMARK  219  A    between atoms: _541  and  _543
REMARK  220  A    between atoms: _543  and  _544
REMARK  221  A    between atoms: _543  and  _546
REMARK  222  A    between atoms: _546  and  _547
REMARK  223  A    between atoms: _547  and  _548
REMARK  224  A    between atoms: _548  and  _549
REMARK                            x       y       z     vdW  Elec       q    Type
REMARK                         _______ _______ _______ _____ _____    ______ ____
ROOT
ATOM      1  O   HOH     1     -29.809  18.551  18.814  0.00  0.00    +0.000 OA
ENDROOT
TORSDOF 0
REMARK  Name = ../refined-set-2016/2o4l/2o4l_pocket.pdb
REMARK  224 active torsions:
REMARK  status: ('A' for Active; 'I' for Inactive)
REMARK    1  A    between atoms: _1  and  _3
REMARK    2  A    between atoms: _3  and  _4
REMARK    3  A    between atoms: _3  and  _6
REMARK    4  A    between atoms: _6  and  _7
REMARK    5  A    between atoms: _7  and  _8
REMARK    6  A    between atoms: _8  and  _9
REMARK    7  A    between atoms: _18  and  _20
REMARK    8  A    between atoms: _20  and  _21
REMARK    9  A    between atoms: _20  and  _23
REMARK   10  A    between atoms: _23  and  _24
REMARK   11  A    between atoms: _27  and  _29
REMARK   12  A    between atoms: _29  and  _30
REMARK   13  A    between atoms: _29  and  _32
REMARK   14  A    between atoms: _32  and  _33
REMARK   15  A    between atoms: _36  and  _38
REMARK   16  A    between atoms: _38  and  _39
REMARK   17  A    between atoms: _38  and  _41
REMARK   18  A    between atoms: _41  and  _42
REMARK   19  A    between atoms: _45  and  _47
REMARK   20  A    between atoms: _47  and  _48
REMARK   21  A    between atoms: _47  and  _50
REMARK   22  A    between atoms: _50  and  _51
REMARK   23  A    between atoms: _54  and  _56
REMARK   24  A    between atoms: _56  and  _57
REMARK   25  A    between atoms: _56  and  _59
REMARK   26  A    between atoms: _59  and  _60
REMARK   27  A    between atoms: _63  and  _65
REMARK   28  A    between atoms: _65  and  _66
REMARK   29  A    between atoms: _68  and  _70
REMARK   30  A    between atoms: _70  and  _71
REMARK   31  A    between atoms: _74  and  _76
REMARK   32  A    between atoms: _76  and  _77
REMARK   33  A    between atoms: _76  and  _79
REMARK   34  A    between atoms: _79  and  _80
REMARK   35  A    between atoms: _83  and  _85
REMARK   36  A    between atoms: _85  and  _86
REMARK   37  A    between atoms: _85  and  _88
REMARK   38  A    between atoms: _88  and  _89
REMARK   39  A    between atoms: _92  and  _94
REMARK   40  A    between atoms: _94  and  _95
REMARK   41  A    between atoms: _94  and  _97
REMARK   42  A    between atoms: _97  and  _98
REMARK   43  A    between atoms: _101  and  _103
REMARK   44  A    between atoms: _103  and  _104
REMARK   45  A    between atoms: _103  and  _106
REMARK   46  A    between atoms: _109  and  _111
REMARK   47  A    between atoms: _111  and  _112
REMARK   48  A    between atoms: _111  and  _114
REMARK   49  A    between atoms: _114  and  _115
REMARK   50  A    between atoms: _115  and  _116
REMARK   51  A    between atoms: _116  and  _117
REMARK   52  A    between atoms: _117  and  _118
REMARK   53  A    between atoms: _122  and  _124
REMARK   54  A    between atoms: _124  and  _125
REMARK   55  A    between atoms: _124  and  _127
REMARK   56  A    between atoms: _127  and  _128
REMARK   57  A    between atoms: _128  and  _129
REMARK   58  A    between atoms: _131  and  _133
REMARK   59  A    between atoms: _133  and  _134
REMARK   60  A    between atoms: _133  and  _136
REMARK   61  A    between atoms: _136  and  _137
REMARK   62  A    between atoms: _140  and  _142
REMARK   63  A    between atoms: _142  and  _143
REMARK   64  A    between atoms: _145  and  _147
REMARK   65  A    between atoms: _147  and  _148
REMARK   66  A    between atoms: _150  and  _152
REMARK   67  A    between atoms: _152  and  _153
REMARK   68  A    between atoms: _152  and  _155
REMARK   69  A    between atoms: _158  and  _160
REMARK   70  A    between atoms: _160  and  _161
REMARK   71  A    between atoms: _163  and  _165
REMARK   72  A    between atoms: _165  and  _166
REMARK   73  A    between atoms: _168  and  _170
REMARK   74  A    between atoms: _170  and  _171
REMARK   75  A    between atoms: _170  and  _173
REMARK   76  A    between atoms: _173  and  _174
REMARK   77  A    between atoms: _180  and  _182
REMARK   78  A    between atoms: _182  and  _183
REMARK   79  A    between atoms: _182  and  _185
REMARK   80  A    between atoms: _185  and  _186
REMARK   81  A    between atoms: _189  and  _191
REMARK   82  A    between atoms: _191  and  _192
REMARK   83  A    between atoms: _191  and  _194
REMARK   84  A    between atoms: _194  and  _195
REMARK   85  A    between atoms: _198  and  _200
REMARK   86  A    between atoms: _200  and  _201
REMARK   87  A    between atoms: _200  and  _203
REMARK   88  A    between atoms: _203  and  _204
REMARK   89  A    between atoms: _208  and  _209
REMARK   90  A    between atoms: _214  and  _216
REMARK   91  A    between atoms: _216  and  _217
REMARK   92  A    between atoms: _216  and  _219
REMARK   93  A    between atoms: _222  and  _224
REMARK   94  A    between atoms: _224  and  _225
REMARK   95  A    between atoms: _224  and  _227
REMARK   96  A    between atoms: _227  and  _228
REMARK   97  A    between atoms: _233  and  _235
REMARK   98  A    between atoms: _235  and  _236
REMARK   99  A    between atoms: _235  and  _238
REMARK  100  A    between atoms: _238  and  _239
REMARK  101  A    between atoms: _242  and  _244
REMARK  102  A    between atoms: _244  and  _245
REMARK  103  A    between atoms: _244  and  _247
REMARK  104  A    between atoms: _247  and  _248
REMARK  105  A    between atoms: _251  and  _253
REMARK  106  A    between atoms: _253  and  _254
REMARK  107  A    between atoms: _256  and  _258
REMARK  108  A    between atoms: _258  and  _259
REMARK  109  A    between atoms: _258  and  _261
REMARK  110  A    between atoms: _261  and  _262
REMARK  111  A    between atoms: _262  and  _263
REMARK  112  A    between atoms: _263  and  _264
REMARK  113  A    between atoms: _273  and  _275
REMARK  114  A    between atoms: _275  and  _276
REMARK  115  A    between atoms: _275  and  _278
REMARK  116  A    between atoms: _278  and  _279
REMARK  117  A    between atoms: _284  and  _286
REMARK  118  A    between atoms: _286  and  _287
REMARK  119  A    between atoms: _286  and  _289
REMARK  120  A    between atoms: _289  and  _290
REMARK  121  A    between atoms: _290  and  _291
REMARK  122  A    between atoms: _291  and  _292
REMARK  123  A    between atoms: _302  and  _303
REMARK  124  A    between atoms: _308  and  _310
REMARK  125  A    between atoms: _310  and  _311
REMARK  126  A    between atoms: _310  and  _313
REMARK  127  A    between atoms: _313  and  _314
REMARK  128  A    between atoms: _317  and  _319
REMARK  129  A    between atoms: _319  and  _320
REMARK  130  A    between atoms: _319  and  _322
REMARK  131  A    between atoms: _322  and  _323
REMARK  132  A    between atoms: _326  and  _328
REMARK  133  A    between atoms: _328  and  _329
REMARK  134  A    between atoms: _328  and  _331
REMARK  135  A    between atoms: _331  and  _332
REMARK  136  A    between atoms: _335  and  _337
REMARK  137  A    between atoms: _337  and  _338
REMARK  138  A    between atoms: _337  and  _340
REMARK  139  A    between atoms: _340  and  _341
REMARK  140  A    between atoms: _344  and  _346
REMARK  141  A    between atoms: _346  and  _347
REMARK  142  A    between atoms: _346  and  _349
REMARK  143  A    between atoms: _349  and  _350
REMARK  144  A    between atoms: _353  and  _355
REMARK  145  A    between atoms: _355  and  _356
REMARK  146  A    between atoms: _358  and  _360
REMARK  147  A    between atoms: _360  and  _361
REMARK  148  A    between atoms: _364  and  _366
REMARK  149  A    between atoms: _366  and  _367
REMARK  150  A    between atoms: _366  and  _369
REMARK  151  A    between atoms: _369  and  _370
REMARK  152  A    between atoms: _373  and  _375
REMARK  153  A    between atoms: _375  and  _376
REMARK  154  A    between atoms: _375  and  _378
REMARK  155  A    between atoms: _378  and  _379
REMARK  156  A    between atoms: _382  and  _384
REMARK  157  A    between atoms: _384  and  _385
REMARK  158  A    between atoms: _384  and  _387
REMARK  159  A    between atoms: _387  and  _388
REMARK  160  A    between atoms: _391  and  _393
REMARK  161  A    between atoms: _393  and  _394
REMARK  162  A    between atoms: _393  and  _396
REMARK  163  A    between atoms: _399  and  _401
REMARK  164  A    between atoms: _401  and  _402
REMARK  165  A    between atoms: _401  and  _404
REMARK  166  A    between atoms: _404  and  _405
REMARK  167  A    between atoms: _408  and  _410
REMARK  168  A    between atoms: _410  and  _411
REMARK  169  A    between atoms: _410  and  _413
REMARK  170  A    between atoms: _413  and  _414
REMARK  171  A    between atoms: _417  and  _419
REMARK  172  A    between atoms: _419  and  _420
REMARK  173  A    between atoms: _422  and  _424
REMARK  174  A    between atoms: _424  and  _425
REMARK  175  A    between atoms: _427  and  _429
REMARK  176  A    between atoms: _429  and  _430
REMARK  177  A    between atoms: _429  and  _432
REMARK  178  A    between atoms: _435  and  _437
REMARK  179  A    between atoms: _437  and  _438
REMARK  180  A    between atoms: _440  and  _442
REMARK  181  A    between atoms: _442  and  _443
REMARK  182  A    between atoms: _445  and  _447
REMARK  183  A    between atoms: _447  and  _448
REMARK  184  A    between atoms: _447  and  _450
REMARK  185  A    between atoms: _450  and  _451
REMARK  186  A    between atoms: _457  and  _459
REMARK  187  A    between atoms: _459  and  _460
REMARK  188  A    between atoms: _459  and  _462
REMARK  189  A    between atoms: _462  and  _463
REMARK  190  A    between atoms: _466  and  _468
REMARK  191  A    between atoms: _468  and  _469
REMARK  192  A    between atoms: _468  and  _471
REMARK  193  A    between atoms: _474  and  _476
REMARK  194  A    between atoms: _476  and  _477
REMARK  195  A    between atoms: _476  and  _479
REMARK  196  A    between atoms: _479  and  _480
REMARK  197  A    between atoms: _483  and  _485
REMARK  198  A    between atoms: _485  and  _486
REMARK  199  A    between atoms: _485  and  _488
REMARK  200  A    between atoms: _488  and  _489
REMARK  201  A    between atoms: _493  and  _494
REMARK  202  A    between atoms: _499  and  _501
REMARK  203  A    between atoms: _501  and  _502
REMARK  204  A    between atoms: _501  and  _504
REMARK  205  A    between atoms: _507  and  _509
REMARK  206  A    between atoms: _509  and  _510
REMARK  207  A    between atoms: _509  and  _512
REMARK  208  A    between atoms: _512  and  _513
REMARK  209  A    between atoms: _518  and  _520
REMARK  210  A    between atoms: _520  and  _521
REMARK  211  A    between atoms: _520  and  _523
REMARK  212  A    between atoms: _523  and  _524
REMARK  213  A    between atoms: _527  and  _529
REMARK  214  A    between atoms: _529  and  _530
REMARK  215  A    between atoms: _529  and  _532
REMARK  216  A    between atoms: _532  and  _533
REMARK  217  A    between atoms: _536  and  _538
REMARK  218  A    between atoms: _538  and  _539
REMARK  219  A    between atoms: _541  and  _543
REMARK  220  A    between atoms: _543  and  _544
REMARK  221  A    between atoms: _543  and  _546
REMARK  222  A    between atoms: _546  and  _547
REMARK  223  A    between atoms: _547  and  _548
REMARK  224  A    between atoms: _548  and  _549
REMARK                            x       y       z     vdW  Elec       q    Type
REMARK                         _______ _______ _______ _____ _____    ______ ____
ROOT
ATOM      1  O   HOH     1      -9.761  22.477   5.983  0.00  0.00    +0.000 OA
ENDROOT
TORSDOF 0
REMARK  Name = ../refined-set-2016/2o4l/2o4l_pocket.pdb
REMARK  224 active torsions:
REMARK  status: ('A' for Active; 'I' for Inactive)
REMARK    1  A    between atoms: _1  and  _3
REMARK    2  A    between atoms: _3  and  _4
REMARK    3  A    between atoms: _3  and  _6
REMARK    4  A    between atoms: _6  and  _7
REMARK    5  A    between atoms: _7  and  _8
REMARK    6  A    between atoms: _8  and  _9
REMARK    7  A    between atoms: _18  and  _20
REMARK    8  A    between atoms: _20  and  _21
REMARK    9  A    between atoms: _20  and  _23
REMARK   10  A    between atoms: _23  and  _24
REMARK   11  A    between atoms: _27  and  _29
REMARK   12  A    between atoms: _29  and  _30
REMARK   13  A    between atoms: _29  and  _32
REMARK   14  A    between atoms: _32  and  _33
REMARK   15  A    between atoms: _36  and  _38
REMARK   16  A    between atoms: _38  and  _39
REMARK   17  A    between atoms: _38  and  _41
REMARK   18  A    between atoms: _41  and  _42
REMARK   19  A    between atoms: _45  and  _47
REMARK   20  A    between atoms: _47  and  _48
REMARK   21  A    between atoms: _47  and  _50
REMARK   22  A    between atoms: _50  and  _51
REMARK   23  A    between atoms: _54  and  _56
REMARK   24  A    between atoms: _56  and  _57
REMARK   25  A    between atoms: _56  and  _59
REMARK   26  A    between atoms: _59  and  _60
REMARK   27  A    between atoms: _63  and  _65
REMARK   28  A    between atoms: _65  and  _66
REMARK   29  A    between atoms: _68  and  _70
REMARK   30  A    between atoms: _70  and  _71
REMARK   31  A    between atoms: _74  and  _76
REMARK   32  A    between atoms: _76  and  _77
REMARK   33  A    between atoms: _76  and  _79
REMARK   34  A    between atoms: _79  and  _80
REMARK   35  A    between atoms: _83  and  _85
REMARK   36  A    between atoms: _85  and  _86
REMARK   37  A    between atoms: _85  and  _88
REMARK   38  A    between atoms: _88  and  _89
REMARK   39  A    between atoms: _92  and  _94
REMARK   40  A    between atoms: _94  and  _95
REMARK   41  A    between atoms: _94  and  _97
REMARK   42  A    between atoms: _97  and  _98
REMARK   43  A    between atoms: _101  and  _103
REMARK   44  A    between atoms: _103  and  _104
REMARK   45  A    between atoms: _103  and  _106
REMARK   46  A    between atoms: _109  and  _111
REMARK   47  A    between atoms: _111  and  _112
REMARK   48  A    between atoms: _111  and  _114
REMARK   49  A    between atoms: _114  and  _115
REMARK   50  A    between atoms: _115  and  _116
REMARK   51  A    between atoms: _116  and  _117
REMARK   52  A    between atoms: _117  and  _118
REMARK   53  A    between atoms: _122  and  _124
REMARK   54  A    between atoms: _124  and  _125
REMARK   55  A    between atoms: _124  and  _127
REMARK   56  A    between atoms: _127  and  _128
REMARK   57  A    between atoms: _128  and  _129
REMARK   58  A    between atoms: _131  and  _133
REMARK   59  A    between atoms: _133  and  _134
REMARK   60  A    between atoms: _133  and  _136
REMARK   61  A    between atoms: _136  and  _137
REMARK   62  A    between atoms: _140  and  _142
REMARK   63  A    between atoms: _142  and  _143
REMARK   64  A    between atoms: _145  and  _147
REMARK   65  A    between atoms: _147  and  _148
REMARK   66  A    between atoms: _150  and  _152
REMARK   67  A    between atoms: _152  and  _153
REMARK   68  A    between atoms: _152  and  _155
REMARK   69  A    between atoms: _158  and  _160
REMARK   70  A    between atoms: _160  and  _161
REMARK   71  A    between atoms: _163  and  _165
REMARK   72  A    between atoms: _165  and  _166
REMARK   73  A    between atoms: _168  and  _170
REMARK   74  A    between atoms: _170  and  _171
REMARK   75  A    between atoms: _170  and  _173
REMARK   76  A    between atoms: _173  and  _174
REMARK   77  A    between atoms: _180  and  _182
REMARK   78  A    between atoms: _182  and  _183
REMARK   79  A    between atoms: _182  and  _185
REMARK   80  A    between atoms: _185  and  _186
REMARK   81  A    between atoms: _189  and  _191
REMARK   82  A    between atoms: _191  and  _192
REMARK   83  A    between atoms: _191  and  _194
REMARK   84  A    between atoms: _194  and  _195
REMARK   85  A    between atoms: _198  and  _200
REMARK   86  A    between atoms: _200  and  _201
REMARK   87  A    between atoms: _200  and  _203
REMARK   88  A    between atoms: _203  and  _204
REMARK   89  A    between atoms: _208  and  _209
REMARK   90  A    between atoms: _214  and  _216
REMARK   91  A    between atoms: _216  and  _217
REMARK   92  A    between atoms: _216  and  _219
REMARK   93  A    between atoms: _222  and  _224
REMARK   94  A    between atoms: _224  and  _225
REMARK   95  A    between atoms: _224  and  _227
REMARK   96  A    between atoms: _227  and  _228
REMARK   97  A    between atoms: _233  and  _235
REMARK   98  A    between atoms: _235  and  _236
REMARK   99  A    between atoms: _235  and  _238
REMARK  100  A    between atoms: _238  and  _239
REMARK  101  A    between atoms: _242  and  _244
REMARK  102  A    between atoms: _244  and  _245
REMARK  103  A    between atoms: _244  and  _247
REMARK  104  A    between atoms: _247  and  _248
REMARK  105  A    between atoms: _251  and  _253
REMARK  106  A    between atoms: _253  and  _254
REMARK  107  A    between atoms: _256  and  _258
REMARK  108  A    between atoms: _258  and  _259
REMARK  109  A    between atoms: _258  and  _261
REMARK  110  A    between atoms: _261  and  _262
REMARK  111  A    between atoms: _262  and  _263
REMARK  112  A    between atoms: _263  and  _264
REMARK  113  A    between atoms: _273  and  _275
REMARK  114  A    between atoms: _275  and  _276
REMARK  115  A    between atoms: _275  and  _278
REMARK  116  A    between atoms: _278  and  _279
REMARK  117  A    between atoms: _284  and  _286
REMARK  118  A    between atoms: _286  and  _287
REMARK  119  A    between atoms: _286  and  _289
REMARK  120  A    between atoms: _289  and  _290
REMARK  121  A    between atoms: _290  and  _291
REMARK  122  A    between atoms: _291  and  _292
REMARK  123  A    between atoms: _302  and  _303
REMARK  124  A    between atoms: _308  and  _310
REMARK  125  A    between atoms: _310  and  _311
REMARK  126  A    between atoms: _310  and  _313
REMARK  127  A    between atoms: _313  and  _314
REMARK  128  A    between atoms: _317  and  _319
REMARK  129  A    between atoms: _319  and  _320
REMARK  130  A    between atoms: _319  and  _322
REMARK  131  A    between atoms: _322  and  _323
REMARK  132  A    between atoms: _326  and  _328
REMARK  133  A    between atoms: _328  and  _329
REMARK  134  A    between atoms: _328  and  _331
REMARK  135  A    between atoms: _331  and  _332
REMARK  136  A    between atoms: _335  and  _337
REMARK  137  A    between atoms: _337  and  _338
REMARK  138  A    between atoms: _337  and  _340
REMARK  139  A    between atoms: _340  and  _341
REMARK  140  A    between atoms: _344  and  _346
REMARK  141  A    between atoms: _346  and  _347
REMARK  142  A    between atoms: _346  and  _349
REMARK  143  A    between atoms: _349  and  _350
REMARK  144  A    between atoms: _353  and  _355
REMARK  145  A    between atoms: _355  and  _356
REMARK  146  A    between atoms: _358  and  _360
REMARK  147  A    between atoms: _360  and  _361
REMARK  148  A    between atoms: _364  and  _366
REMARK  149  A    between atoms: _366  and  _367
REMARK  150  A    between atoms: _366  and  _369
REMARK  151  A    between atoms: _369  and  _370
REMARK  152  A    between atoms: _373  and  _375
REMARK  153  A    between atoms: _375  and  _376
REMARK  154  A    between atoms: _375  and  _378
REMARK  155  A    between atoms: _378  and  _379
REMARK  156  A    between atoms: _382  and  _384
REMARK  157  A    between atoms: _384  and  _385
REMARK  158  A    between atoms: _384  and  _387
REMARK  159  A    between atoms: _387  and  _388
REMARK  160  A    between atoms: _391  and  _393
REMARK  161  A    between atoms: _393  and  _394
REMARK  162  A    between atoms: _393  and  _396
REMARK  163  A    between atoms: _399  and  _401
REMARK  164  A    between atoms: _401  and  _402
REMARK  165  A    between atoms: _401  and  _404
REMARK  166  A    between atoms: _404  and  _405
REMARK  167  A    between atoms: _408  and  _410
REMARK  168  A    between atoms: _410  and  _411
REMARK  169  A    between atoms: _410  and  _413
REMARK  170  A    between atoms: _413  and  _414
REMARK  171  A    between atoms: _417  and  _419
REMARK  172  A    between atoms: _419  and  _420
REMARK  173  A    between atoms: _422  and  _424
REMARK  174  A    between atoms: _424  and  _425
REMARK  175  A    between atoms: _427  and  _429
REMARK  176  A    between atoms: _429  and  _430
REMARK  177  A    between atoms: _429  and  _432
REMARK  178  A    between atoms: _435  and  _437
REMARK  179  A    between atoms: _437  and  _438
REMARK  180  A    between atoms: _440  and  _442
REMARK  181  A    between atoms: _442  and  _443
REMARK  182  A    between atoms: _445  and  _447
REMARK  183  A    between atoms: _447  and  _448
REMARK  184  A    between atoms: _447  and  _450
REMARK  185  A    between atoms: _450  and  _451
REMARK  186  A    between atoms: _457  and  _459
REMARK  187  A    between atoms: _459  and  _460
REMARK  188  A    between atoms: _459  and  _462
REMARK  189  A    between atoms: _462  and  _463
REMARK  190  A    between atoms: _466  and  _468
REMARK  191  A    between atoms: _468  and  _469
REMARK  192  A    between atoms: _468  and  _471
REMARK  193  A    between atoms: _474  and  _476
REMARK  194  A    between atoms: _476  and  _477
REMARK  195  A    between atoms: _476  and  _479
REMARK  196  A    between atoms: _479  and  _480
REMARK  197  A    between atoms: _483  and  _485
REMARK  198  A    between atoms: _485  and  _486
REMARK  199  A    between atoms: _485  and  _488
REMARK  200  A    between atoms: _488  and  _489
REMARK  201  A    between atoms: _493  and  _494
REMARK  202  A    between atoms: _499  and  _501
REMARK  203  A    between atoms: _501  and  _502
REMARK  204  A    between atoms: _501  and  _504
REMARK  205  A    between atoms: _507  and  _509
REMARK  206  A    between atoms: _509  and  _510
REMARK  207  A    between atoms: _509  and  _512
REMARK  208  A    between atoms: _512  and  _513
REMARK  209  A    between atoms: _518  and  _520
REMARK  210  A    between atoms: _520  and  _521
REMARK  211  A    between atoms: _520  and  _523
REMARK  212  A    between atoms: _523  and  _524
REMARK  213  A    between atoms: _527  and  _529
REMARK  214  A    between atoms: _529  and  _530
REMARK  215  A    between atoms: _529  and  _532
REMARK  216  A    between atoms: _532  and  _533
REMARK  217  A    between atoms: _536  and  _538
REMARK  218  A    between atoms: _538  and  _539
REMARK  219  A    between atoms: _541  and  _543
REMARK  220  A    between atoms: _543  and  _544
REMARK  221  A    between atoms: _543  and  _546
REMARK  222  A    between atoms: _546  and  _547
REMARK  223  A    between atoms: _547  and  _548
REMARK  224  A    between atoms: _548  and  _549
REMARK                            x       y       z     vdW  Elec       q    Type
REMARK                         _______ _______ _______ _____ _____    ______ ____
ROOT
ATOM      1  O   HOH     1     -24.714   9.422  16.120  0.00  0.00    +0.000 OA
ENDROOT
TORSDOF 0
REMARK  Name = ../refined-set-2016/2o4l/2o4l_pocket.pdb
REMARK  224 active torsions:
REMARK  status: ('A' for Active; 'I' for Inactive)
REMARK    1  A    between atoms: _1  and  _3
REMARK    2  A    between atoms: _3  and  _4
REMARK    3  A    between atoms: _3  and  _6
REMARK    4  A    between atoms: _6  and  _7
REMARK    5  A    between atoms: _7  and  _8
REMARK    6  A    between atoms: _8  and  _9
REMARK    7  A    between atoms: _18  and  _20
REMARK    8  A    between atoms: _20  and  _21
REMARK    9  A    between atoms: _20  and  _23
REMARK   10  A    between atoms: _23  and  _24
REMARK   11  A    between atoms: _27  and  _29
REMARK   12  A    between atoms: _29  and  _30
REMARK   13  A    between atoms: _29  and  _32
REMARK   14  A    between atoms: _32  and  _33
REMARK   15  A    between atoms: _36  and  _38
REMARK   16  A    between atoms: _38  and  _39
REMARK   17  A    between atoms: _38  and  _41
REMARK   18  A    between atoms: _41  and  _42
REMARK   19  A    between atoms: _45  and  _47
REMARK   20  A    between atoms: _47  and  _48
REMARK   21  A    between atoms: _47  and  _50
REMARK   22  A    between atoms: _50  and  _51
REMARK   23  A    between atoms: _54  and  _56
REMARK   24  A    between atoms: _56  and  _57
REMARK   25  A    between atoms: _56  and  _59
REMARK   26  A    between atoms: _59  and  _60
REMARK   27  A    between atoms: _63  and  _65
REMARK   28  A    between atoms: _65  and  _66
REMARK   29  A    between atoms: _68  and  _70
REMARK   30  A    between atoms: _70  and  _71
REMARK   31  A    between atoms: _74  and  _76
REMARK   32  A    between atoms: _76  and  _77
REMARK   33  A    between atoms: _76  and  _79
REMARK   34  A    between atoms: _79  and  _80
REMARK   35  A    between atoms: _83  and  _85
REMARK   36  A    between atoms: _85  and  _86
REMARK   37  A    between atoms: _85  and  _88
REMARK   38  A    between atoms: _88  and  _89
REMARK   39  A    between atoms: _92  and  _94
REMARK   40  A    between atoms: _94  and  _95
REMARK   41  A    between atoms: _94  and  _97
REMARK   42  A    between atoms: _97  and  _98
REMARK   43  A    between atoms: _101  and  _103
REMARK   44  A    between atoms: _103  and  _104
REMARK   45  A    between atoms: _103  and  _106
REMARK   46  A    between atoms: _109  and  _111
REMARK   47  A    between atoms: _111  and  _112
REMARK   48  A    between atoms: _111  and  _114
REMARK   49  A    between atoms: _114  and  _115
REMARK   50  A    between atoms: _115  and  _116
REMARK   51  A    between atoms: _116  and  _117
REMARK   52  A    between atoms: _117  and  _118
REMARK   53  A    between atoms: _122  and  _124
REMARK   54  A    between atoms: _124  and  _125
REMARK   55  A    between atoms: _124  and  _127
REMARK   56  A    between atoms: _127  and  _128
REMARK   57  A    between atoms: _128  and  _129
REMARK   58  A    between atoms: _131  and  _133
REMARK   59  A    between atoms: _133  and  _134
REMARK   60  A    between atoms: _133  and  _136
REMARK   61  A    between atoms: _136  and  _137
REMARK   62  A    between atoms: _140  and  _142
REMARK   63  A    between atoms: _142  and  _143
REMARK   64  A    between atoms: _145  and  _147
REMARK   65  A    between atoms: _147  and  _148
REMARK   66  A    between atoms: _150  and  _152
REMARK   67  A    between atoms: _152  and  _153
REMARK   68  A    between atoms: _152  and  _155
REMARK   69  A    between atoms: _158  and  _160
REMARK   70  A    between atoms: _160  and  _161
REMARK   71  A    between atoms: _163  and  _165
REMARK   72  A    between atoms: _165  and  _166
REMARK   73  A    between atoms: _168  and  _170
REMARK   74  A    between atoms: _170  and  _171
REMARK   75  A    between atoms: _170  and  _173
REMARK   76  A    between atoms: _173  and  _174
REMARK   77  A    between atoms: _180  and  _182
REMARK   78  A    between atoms: _182  and  _183
REMARK   79  A    between atoms: _182  and  _185
REMARK   80  A    between atoms: _185  and  _186
REMARK   81  A    between atoms: _189  and  _191
REMARK   82  A    between atoms: _191  and  _192
REMARK   83  A    between atoms: _191  and  _194
REMARK   84  A    between atoms: _194  and  _195
REMARK   85  A    between atoms: _198  and  _200
REMARK   86  A    between atoms: _200  and  _201
REMARK   87  A    between atoms: _200  and  _203
REMARK   88  A    between atoms: _203  and  _204
REMARK   89  A    between atoms: _208  and  _209
REMARK   90  A    between atoms: _214  and  _216
REMARK   91  A    between atoms: _216  and  _217
REMARK   92  A    between atoms: _216  and  _219
REMARK   93  A    between atoms: _222  and  _224
REMARK   94  A    between atoms: _224  and  _225
REMARK   95  A    between atoms: _224  and  _227
REMARK   96  A    between atoms: _227  and  _228
REMARK   97  A    between atoms: _233  and  _235
REMARK   98  A    between atoms: _235  and  _236
REMARK   99  A    between atoms: _235  and  _238
REMARK  100  A    between atoms: _238  and  _239
REMARK  101  A    between atoms: _242  and  _244
REMARK  102  A    between atoms: _244  and  _245
REMARK  103  A    between atoms: _244  and  _247
REMARK  104  A    between atoms: _247  and  _248
REMARK  105  A    between atoms: _251  and  _253
REMARK  106  A    between atoms: _253  and  _254
REMARK  107  A    between atoms: _256  and  _258
REMARK  108  A    between atoms: _258  and  _259
REMARK  109  A    between atoms: _258  and  _261
REMARK  110  A    between atoms: _261  and  _262
REMARK  111  A    between atoms: _262  and  _263
REMARK  112  A    between atoms: _263  and  _264
REMARK  113  A    between atoms: _273  and  _275
REMARK  114  A    between atoms: _275  and  _276
REMARK  115  A    between atoms: _275  and  _278
REMARK  116  A    between atoms: _278  and  _279
REMARK  117  A    between atoms: _284  and  _286
REMARK  118  A    between atoms: _286  and  _287
REMARK  119  A    between atoms: _286  and  _289
REMARK  120  A    between atoms: _289  and  _290
REMARK  121  A    between atoms: _290  and  _291
REMARK  122  A    between atoms: _291  and  _292
REMARK  123  A    between atoms: _302  and  _303
REMARK  124  A    between atoms: _308  and  _310
REMARK  125  A    between atoms: _310  and  _311
REMARK  126  A    between atoms: _310  and  _313
REMARK  127  A    between atoms: _313  and  _314
REMARK  128  A    between atoms: _317  and  _319
REMARK  129  A    between atoms: _319  and  _320
REMARK  130  A    between atoms: _319  and  _322
REMARK  131  A    between atoms: _322  and  _323
REMARK  132  A    between atoms: _326  and  _328
REMARK  133  A    between atoms: _328  and  _329
REMARK  134  A    between atoms: _328  and  _331
REMARK  135  A    between atoms: _331  and  _332
REMARK  136  A    between atoms: _335  and  _337
REMARK  137  A    between atoms: _337  and  _338
REMARK  138  A    between atoms: _337  and  _340
REMARK  139  A    between atoms: _340  and  _341
REMARK  140  A    between atoms: _344  and  _346
REMARK  141  A    between atoms: _346  and  _347
REMARK  142  A    between atoms: _346  and  _349
REMARK  143  A    between atoms: _349  and  _350
REMARK  144  A    between atoms: _353  and  _355
REMARK  145  A    between atoms: _355  and  _356
REMARK  146  A    between atoms: _358  and  _360
REMARK  147  A    between atoms: _360  and  _361
REMARK  148  A    between atoms: _364  and  _366
REMARK  149  A    between atoms: _366  and  _367
REMARK  150  A    between atoms: _366  and  _369
REMARK  151  A    between atoms: _369  and  _370
REMARK  152  A    between atoms: _373  and  _375
REMARK  153  A    between atoms: _375  and  _376
REMARK  154  A    between atoms: _375  and  _378
REMARK  155  A    between atoms: _378  and  _379
REMARK  156  A    between atoms: _382  and  _384
REMARK  157  A    between atoms: _384  and  _385
REMARK  158  A    between atoms: _384  and  _387
REMARK  159  A    between atoms: _387  and  _388
REMARK  160  A    between atoms: _391  and  _393
REMARK  161  A    between atoms: _393  and  _394
REMARK  162  A    between atoms: _393  and  _396
REMARK  163  A    between atoms: _399  and  _401
REMARK  164  A    between atoms: _401  and  _402
REMARK  165  A    between atoms: _401  and  _404
REMARK  166  A    between atoms: _404  and  _405
REMARK  167  A    between atoms: _408  and  _410
REMARK  168  A    between atoms: _410  and  _411
REMARK  169  A    between atoms: _410  and  _413
REMARK  170  A    between atoms: _413  and  _414
REMARK  171  A    between atoms: _417  and  _419
REMARK  172  A    between atoms: _419  and  _420
REMARK  173  A    between atoms: _422  and  _424
REMARK  174  A    between atoms: _424  and  _425
REMARK  175  A    between atoms: _427  and  _429
REMARK  176  A    between atoms: _429  and  _430
REMARK  177  A    between atoms: _429  and  _432
REMARK  178  A    between atoms: _435  and  _437
REMARK  179  A    between atoms: _437  and  _438
REMARK  180  A    between atoms: _440  and  _442
REMARK  181  A    between atoms: _442  and  _443
REMARK  182  A    between atoms: _445  and  _447
REMARK  183  A    between atoms: _447  and  _448
REMARK  184  A    between atoms: _447  and  _450
REMARK  185  A    between atoms: _450  and  _451
REMARK  186  A    between atoms: _457  and  _459
REMARK  187  A    between atoms: _459  and  _460
REMARK  188  A    between atoms: _459  and  _462
REMARK  189  A    between atoms: _462  and  _463
REMARK  190  A    between atoms: _466  and  _468
REMARK  191  A    between atoms: _468  and  _469
REMARK  192  A    between atoms: _468  and  _471
REMARK  193  A    between atoms: _474  and  _476
REMARK  194  A    between atoms: _476  and  _477
REMARK  195  A    between atoms: _476  and  _479
REMARK  196  A    between atoms: _479  and  _480
REMARK  197  A    between atoms: _483  and  _485
REMARK  198  A    between atoms: _485  and  _486
REMARK  199  A    between atoms: _485  and  _488
REMARK  200  A    between atoms: _488  and  _489
REMARK  201  A    between atoms: _493  and  _494
REMARK  202  A    between atoms: _499  and  _501
REMARK  203  A    between atoms: _501  and  _502
REMARK  204  A    between atoms: _501  and  _504
REMARK  205  A    between atoms: _507  and  _509
REMARK  206  A    between atoms: _509  and  _510
REMARK  207  A    between atoms: _509  and  _512
REMARK  208  A    between atoms: _512  and  _513
REMARK  209  A    between atoms: _518  and  _520
REMARK  210  A    between atoms: _520  and  _521
REMARK  211  A    between atoms: _520  and  _523
REMARK  212  A    between atoms: _523  and  _524
REMARK  213  A    between atoms: _527  and  _529
REMARK  214  A    between atoms: _529  and  _530
REMARK  215  A    between atoms: _529  and  _532
REMARK  216  A    between atoms: _532  and  _533
REMARK  217  A    between atoms: _536  and  _538
REMARK  218  A    between atoms: _538  and  _539
REMARK  219  A    between atoms: _541  and  _543
REMARK  220  A    between atoms: _543  and  _544
REMARK  221  A    between atoms: _543  and  _546
REMARK  222  A    between atoms: _546  and  _547
REMARK  223  A    between atoms: _547  and  _548
REMARK  224  A    between atoms: _548  and  _549
REMARK                            x       y       z     vdW  Elec       q    Type
REMARK                         _______ _______ _______ _____ _____    ______ ____
ROOT
ATOM      1  O   HOH     1     -11.958  25.048   5.767  0.00  0.00    +0.000 OA
ENDROOT
TORSDOF 0
REMARK  Name = ../refined-set-2016/2o4l/2o4l_pocket.pdb
REMARK  224 active torsions:
REMARK  status: ('A' for Active; 'I' for Inactive)
REMARK    1  A    between atoms: _1  and  _3
REMARK    2  A    between atoms: _3  and  _4
REMARK    3  A    between atoms: _3  and  _6
REMARK    4  A    between atoms: _6  and  _7
REMARK    5  A    between atoms: _7  and  _8
REMARK    6  A    between atoms: _8  and  _9
REMARK    7  A    between atoms: _18  and  _20
REMARK    8  A    between atoms: _20  and  _21
REMARK    9  A    between atoms: _20  and  _23
REMARK   10  A    between atoms: _23  and  _24
REMARK   11  A    between atoms: _27  and  _29
REMARK   12  A    between atoms: _29  and  _30
REMARK   13  A    between atoms: _29  and  _32
REMARK   14  A    between atoms: _32  and  _33
REMARK   15  A    between atoms: _36  and  _38
REMARK   16  A    between atoms: _38  and  _39
REMARK   17  A    between atoms: _38  and  _41
REMARK   18  A    between atoms: _41  and  _42
REMARK   19  A    between atoms: _45  and  _47
REMARK   20  A    between atoms: _47  and  _48
REMARK   21  A    between atoms: _47  and  _50
REMARK   22  A    between atoms: _50  and  _51
REMARK   23  A    between atoms: _54  and  _56
REMARK   24  A    between atoms: _56  and  _57
REMARK   25  A    between atoms: _56  and  _59
REMARK   26  A    between atoms: _59  and  _60
REMARK   27  A    between atoms: _63  and  _65
REMARK   28  A    between atoms: _65  and  _66
REMARK   29  A    between atoms: _68  and  _70
REMARK   30  A    between atoms: _70  and  _71
REMARK   31  A    between atoms: _74  and  _76
REMARK   32  A    between atoms: _76  and  _77
REMARK   33  A    between atoms: _76  and  _79
REMARK   34  A    between atoms: _79  and  _80
REMARK   35  A    between atoms: _83  and  _85
REMARK   36  A    between atoms: _85  and  _86
REMARK   37  A    between atoms: _85  and  _88
REMARK   38  A    between atoms: _88  and  _89
REMARK   39  A    between atoms: _92  and  _94
REMARK   40  A    between atoms: _94  and  _95
REMARK   41  A    between atoms: _94  and  _97
REMARK   42  A    between atoms: _97  and  _98
REMARK   43  A    between atoms: _101  and  _103
REMARK   44  A    between atoms: _103  and  _104
REMARK   45  A    between atoms: _103  and  _106
REMARK   46  A    between atoms: _109  and  _111
REMARK   47  A    between atoms: _111  and  _112
REMARK   48  A    between atoms: _111  and  _114
REMARK   49  A    between atoms: _114  and  _115
REMARK   50  A    between atoms: _115  and  _116
REMARK   51  A    between atoms: _116  and  _117
REMARK   52  A    between atoms: _117  and  _118
REMARK   53  A    between atoms: _122  and  _124
REMARK   54  A    between atoms: _124  and  _125
REMARK   55  A    between atoms: _124  and  _127
REMARK   56  A    between atoms: _127  and  _128
REMARK   57  A    between atoms: _128  and  _129
REMARK   58  A    between atoms: _131  and  _133
REMARK   59  A    between atoms: _133  and  _134
REMARK   60  A    between atoms: _133  and  _136
REMARK   61  A    between atoms: _136  and  _137
REMARK   62  A    between atoms: _140  and  _142
REMARK   63  A    between atoms: _142  and  _143
REMARK   64  A    between atoms: _145  and  _147
REMARK   65  A    between atoms: _147  and  _148
REMARK   66  A    between atoms: _150  and  _152
REMARK   67  A    between atoms: _152  and  _153
REMARK   68  A    between atoms: _152  and  _155
REMARK   69  A    between atoms: _158  and  _160
REMARK   70  A    between atoms: _160  and  _161
REMARK   71  A    between atoms: _163  and  _165
REMARK   72  A    between atoms: _165  and  _166
REMARK   73  A    between atoms: _168  and  _170
REMARK   74  A    between atoms: _170  and  _171
REMARK   75  A    between atoms: _170  and  _173
REMARK   76  A    between atoms: _173  and  _174
REMARK   77  A    between atoms: _180  and  _182
REMARK   78  A    between atoms: _182  and  _183
REMARK   79  A    between atoms: _182  and  _185
REMARK   80  A    between atoms: _185  and  _186
REMARK   81  A    between atoms: _189  and  _191
REMARK   82  A    between atoms: _191  and  _192
REMARK   83  A    between atoms: _191  and  _194
REMARK   84  A    between atoms: _194  and  _195
REMARK   85  A    between atoms: _198  and  _200
REMARK   86  A    between atoms: _200  and  _201
REMARK   87  A    between atoms: _200  and  _203
REMARK   88  A    between atoms: _203  and  _204
REMARK   89  A    between atoms: _208  and  _209
REMARK   90  A    between atoms: _214  and  _216
REMARK   91  A    between atoms: _216  and  _217
REMARK   92  A    between atoms: _216  and  _219
REMARK   93  A    between atoms: _222  and  _224
REMARK   94  A    between atoms: _224  and  _225
REMARK   95  A    between atoms: _224  and  _227
REMARK   96  A    between atoms: _227  and  _228
REMARK   97  A    between atoms: _233  and  _235
REMARK   98  A    between atoms: _235  and  _236
REMARK   99  A    between atoms: _235  and  _238
REMARK  100  A    between atoms: _238  and  _239
REMARK  101  A    between atoms: _242  and  _244
REMARK  102  A    between atoms: _244  and  _245
REMARK  103  A    between atoms: _244  and  _247
REMARK  104  A    between atoms: _247  and  _248
REMARK  105  A    between atoms: _251  and  _253
REMARK  106  A    between atoms: _253  and  _254
REMARK  107  A    between atoms: _256  and  _258
REMARK  108  A    between atoms: _258  and  _259
REMARK  109  A    between atoms: _258  and  _261
REMARK  110  A    between atoms: _261  and  _262
REMARK  111  A    between atoms: _262  and  _263
REMARK  112  A    between atoms: _263  and  _264
REMARK  113  A    between atoms: _273  and  _275
REMARK  114  A    between atoms: _275  and  _276
REMARK  115  A    between atoms: _275  and  _278
REMARK  116  A    between atoms: _278  and  _279
REMARK  117  A    between atoms: _284  and  _286
REMARK  118  A    between atoms: _286  and  _287
REMARK  119  A    between atoms: _286  and  _289
REMARK  120  A    between atoms: _289  and  _290
REMARK  121  A    between atoms: _290  and  _291
REMARK  122  A    between atoms: _291  and  _292
REMARK  123  A    between atoms: _302  and  _303
REMARK  124  A    between atoms: _308  and  _310
REMARK  125  A    between atoms: _310  and  _311
REMARK  126  A    between atoms: _310  and  _313
REMARK  127  A    between atoms: _313  and  _314
REMARK  128  A    between atoms: _317  and  _319
REMARK  129  A    between atoms: _319  and  _320
REMARK  130  A    between atoms: _319  and  _322
REMARK  131  A    between atoms: _322  and  _323
REMARK  132  A    between atoms: _326  and  _328
REMARK  133  A    between atoms: _328  and  _329
REMARK  134  A    between atoms: _328  and  _331
REMARK  135  A    between atoms: _331  and  _332
REMARK  136  A    between atoms: _335  and  _337
REMARK  137  A    between atoms: _337  and  _338
REMARK  138  A    between atoms: _337  and  _340
REMARK  139  A    between atoms: _340  and  _341
REMARK  140  A    between atoms: _344  and  _346
REMARK  141  A    between atoms: _346  and  _347
REMARK  142  A    between atoms: _346  and  _349
REMARK  143  A    between atoms: _349  and  _350
REMARK  144  A    between atoms: _353  and  _355
REMARK  145  A    between atoms: _355  and  _356
REMARK  146  A    between atoms: _358  and  _360
REMARK  147  A    between atoms: _360  and  _361
REMARK  148  A    between atoms: _364  and  _366
REMARK  149  A    between atoms: _366  and  _367
REMARK  150  A    between atoms: _366  and  _369
REMARK  151  A    between atoms: _369  and  _370
REMARK  152  A    between atoms: _373  and  _375
REMARK  153  A    between atoms: _375  and  _376
REMARK  154  A    between atoms: _375  and  _378
REMARK  155  A    between atoms: _378  and  _379
REMARK  156  A    between atoms: _382  and  _384
REMARK  157  A    between atoms: _384  and  _385
REMARK  158  A    between atoms: _384  and  _387
REMARK  159  A    between atoms: _387  and  _388
REMARK  160  A    between atoms: _391  and  _393
REMARK  161  A    between atoms: _393  and  _394
REMARK  162  A    between atoms: _393  and  _396
REMARK  163  A    between atoms: _399  and  _401
REMARK  164  A    between atoms: _401  and  _402
REMARK  165  A    between atoms: _401  and  _404
REMARK  166  A    between atoms: _404  and  _405
REMARK  167  A    between atoms: _408  and  _410
REMARK  168  A    between atoms: _410  and  _411
REMARK  169  A    between atoms: _410  and  _413
REMARK  170  A    between atoms: _413  and  _414
REMARK  171  A    between atoms: _417  and  _419
REMARK  172  A    between atoms: _419  and  _420
REMARK  173  A    between atoms: _422  and  _424
REMARK  174  A    between atoms: _424  and  _425
REMARK  175  A    between atoms: _427  and  _429
REMARK  176  A    between atoms: _429  and  _430
REMARK  177  A    between atoms: _429  and  _432
REMARK  178  A    between atoms: _435  and  _437
REMARK  179  A    between atoms: _437  and  _438
REMARK  180  A    between atoms: _440  and  _442
REMARK  181  A    between atoms: _442  and  _443
REMARK  182  A    between atoms: _445  and  _447
REMARK  183  A    between atoms: _447  and  _448
REMARK  184  A    between atoms: _447  and  _450
REMARK  185  A    between atoms: _450  and  _451
REMARK  186  A    between atoms: _457  and  _459
REMARK  187  A    between atoms: _459  and  _460
REMARK  188  A    between atoms: _459  and  _462
REMARK  189  A    between atoms: _462  and  _463
REMARK  190  A    between atoms: _466  and  _468
REMARK  191  A    between atoms: _468  and  _469
REMARK  192  A    between atoms: _468  and  _471
REMARK  193  A    between atoms: _474  and  _476
REMARK  194  A    between atoms: _476  and  _477
REMARK  195  A    between atoms: _476  and  _479
REMARK  196  A    between atoms: _479  and  _480
REMARK  197  A    between atoms: _483  and  _485
REMARK  198  A    between atoms: _485  and  _486
REMARK  199  A    between atoms: _485  and  _488
REMARK  200  A    between atoms: _488  and  _489
REMARK  201  A    between atoms: _493  and  _494
REMARK  202  A    between atoms: _499  and  _501
REMARK  203  A    between atoms: _501  and  _502
REMARK  204  A    between atoms: _501  and  _504
REMARK  205  A    between atoms: _507  and  _509
REMARK  206  A    between atoms: _509  and  _510
REMARK  207  A    between atoms: _509  and  _512
REMARK  208  A    between atoms: _512  and  _513
REMARK  209  A    between atoms: _518  and  _520
REMARK  210  A    between atoms: _520  and  _521
REMARK  211  A    between atoms: _520  and  _523
REMARK  212  A    between atoms: _523  and  _524
REMARK  213  A    between atoms: _527  and  _529
REMARK  214  A    between atoms: _529  and  _530
REMARK  215  A    between atoms: _529  and  _532
REMARK  216  A    between atoms: _532  and  _533
REMARK  217  A    between atoms: _536  and  _538
REMARK  218  A    between atoms: _538  and  _539
REMARK  219  A    between atoms: _541  and  _543
REMARK  220  A    between atoms: _543  and  _544
REMARK  221  A    between atoms: _543  and  _546
REMARK  222  A    between atoms: _546  and  _547
REMARK  223  A    between atoms: _547  and  _548
REMARK  224  A    between atoms: _548  and  _549
REMARK                            x       y       z     vdW  Elec       q    Type
REMARK                         _______ _______ _______ _____ _____    ______ ____
ROOT
ATOM      1  O   HOH     1     -25.002  22.548  18.258  0.00  0.00    +0.000 OA
ENDROOT
TORSDOF 0
REMARK  Name = ../refined-set-2016/2o4l/2o4l_pocket.pdb
REMARK  224 active torsions:
REMARK  status: ('A' for Active; 'I' for Inactive)
REMARK    1  A    between atoms: _1  and  _3
REMARK    2  A    between atoms: _3  and  _4
REMARK    3  A    between atoms: _3  and  _6
REMARK    4  A    between atoms: _6  and  _7
REMARK    5  A    between atoms: _7  and  _8
REMARK    6  A    between atoms: _8  and  _9
REMARK    7  A    between atoms: _18  and  _20
REMARK    8  A    between atoms: _20  and  _21
REMARK    9  A    between atoms: _20  and  _23
REMARK   10  A    between atoms: _23  and  _24
REMARK   11  A    between atoms: _27  and  _29
REMARK   12  A    between atoms: _29  and  _30
REMARK   13  A    between atoms: _29  and  _32
REMARK   14  A    between atoms: _32  and  _33
REMARK   15  A    between atoms: _36  and  _38
REMARK   16  A    between atoms: _38  and  _39
REMARK   17  A    between atoms: _38  and  _41
REMARK   18  A    between atoms: _41  and  _42
REMARK   19  A    between atoms: _45  and  _47
REMARK   20  A    between atoms: _47  and  _48
REMARK   21  A    between atoms: _47  and  _50
REMARK   22  A    between atoms: _50  and  _51
REMARK   23  A    between atoms: _54  and  _56
REMARK   24  A    between atoms: _56  and  _57
REMARK   25  A    between atoms: _56  and  _59
REMARK   26  A    between atoms: _59  and  _60
REMARK   27  A    between atoms: _63  and  _65
REMARK   28  A    between atoms: _65  and  _66
REMARK   29  A    between atoms: _68  and  _70
REMARK   30  A    between atoms: _70  and  _71
REMARK   31  A    between atoms: _74  and  _76
REMARK   32  A    between atoms: _76  and  _77
REMARK   33  A    between atoms: _76  and  _79
REMARK   34  A    between atoms: _79  and  _80
REMARK   35  A    between atoms: _83  and  _85
REMARK   36  A    between atoms: _85  and  _86
REMARK   37  A    between atoms: _85  and  _88
REMARK   38  A    between atoms: _88  and  _89
REMARK   39  A    between atoms: _92  and  _94
REMARK   40  A    between atoms: _94  and  _95
REMARK   41  A    between atoms: _94  and  _97
REMARK   42  A    between atoms: _97  and  _98
REMARK   43  A    between atoms: _101  and  _103
REMARK   44  A    between atoms: _103  and  _104
REMARK   45  A    between atoms: _103  and  _106
REMARK   46  A    between atoms: _109  and  _111
REMARK   47  A    between atoms: _111  and  _112
REMARK   48  A    between atoms: _111  and  _114
REMARK   49  A    between atoms: _114  and  _115
REMARK   50  A    between atoms: _115  and  _116
REMARK   51  A    between atoms: _116  and  _117
REMARK   52  A    between atoms: _117  and  _118
REMARK   53  A    between atoms: _122  and  _124
REMARK   54  A    between atoms: _124  and  _125
REMARK   55  A    between atoms: _124  and  _127
REMARK   56  A    between atoms: _127  and  _128
REMARK   57  A    between atoms: _128  and  _129
REMARK   58  A    between atoms: _131  and  _133
REMARK   59  A    between atoms: _133  and  _134
REMARK   60  A    between atoms: _133  and  _136
REMARK   61  A    between atoms: _136  and  _137
REMARK   62  A    between atoms: _140  and  _142
REMARK   63  A    between atoms: _142  and  _143
REMARK   64  A    between atoms: _145  and  _147
REMARK   65  A    between atoms: _147  and  _148
REMARK   66  A    between atoms: _150  and  _152
REMARK   67  A    between atoms: _152  and  _153
REMARK   68  A    between atoms: _152  and  _155
REMARK   69  A    between atoms: _158  and  _160
REMARK   70  A    between atoms: _160  and  _161
REMARK   71  A    between atoms: _163  and  _165
REMARK   72  A    between atoms: _165  and  _166
REMARK   73  A    between atoms: _168  and  _170
REMARK   74  A    between atoms: _170  and  _171
REMARK   75  A    between atoms: _170  and  _173
REMARK   76  A    between atoms: _173  and  _174
REMARK   77  A    between atoms: _180  and  _182
REMARK   78  A    between atoms: _182  and  _183
REMARK   79  A    between atoms: _182  and  _185
REMARK   80  A    between atoms: _185  and  _186
REMARK   81  A    between atoms: _189  and  _191
REMARK   82  A    between atoms: _191  and  _192
REMARK   83  A    between atoms: _191  and  _194
REMARK   84  A    between atoms: _194  and  _195
REMARK   85  A    between atoms: _198  and  _200
REMARK   86  A    between atoms: _200  and  _201
REMARK   87  A    between atoms: _200  and  _203
REMARK   88  A    between atoms: _203  and  _204
REMARK   89  A    between atoms: _208  and  _209
REMARK   90  A    between atoms: _214  and  _216
REMARK   91  A    between atoms: _216  and  _217
REMARK   92  A    between atoms: _216  and  _219
REMARK   93  A    between atoms: _222  and  _224
REMARK   94  A    between atoms: _224  and  _225
REMARK   95  A    between atoms: _224  and  _227
REMARK   96  A    between atoms: _227  and  _228
REMARK   97  A    between atoms: _233  and  _235
REMARK   98  A    between atoms: _235  and  _236
REMARK   99  A    between atoms: _235  and  _238
REMARK  100  A    between atoms: _238  and  _239
REMARK  101  A    between atoms: _242  and  _244
REMARK  102  A    between atoms: _244  and  _245
REMARK  103  A    between atoms: _244  and  _247
REMARK  104  A    between atoms: _247  and  _248
REMARK  105  A    between atoms: _251  and  _253
REMARK  106  A    between atoms: _253  and  _254
REMARK  107  A    between atoms: _256  and  _258
REMARK  108  A    between atoms: _258  and  _259
REMARK  109  A    between atoms: _258  and  _261
REMARK  110  A    between atoms: _261  and  _262
REMARK  111  A    between atoms: _262  and  _263
REMARK  112  A    between atoms: _263  and  _264
REMARK  113  A    between atoms: _273  and  _275
REMARK  114  A    between atoms: _275  and  _276
REMARK  115  A    between atoms: _275  and  _278
REMARK  116  A    between atoms: _278  and  _279
REMARK  117  A    between atoms: _284  and  _286
REMARK  118  A    between atoms: _286  and  _287
REMARK  119  A    between atoms: _286  and  _289
REMARK  120  A    between atoms: _289  and  _290
REMARK  121  A    between atoms: _290  and  _291
REMARK  122  A    between atoms: _291  and  _292
REMARK  123  A    between atoms: _302  and  _303
REMARK  124  A    between atoms: _308  and  _310
REMARK  125  A    between atoms: _310  and  _311
REMARK  126  A    between atoms: _310  and  _313
REMARK  127  A    between atoms: _313  and  _314
REMARK  128  A    between atoms: _317  and  _319
REMARK  129  A    between atoms: _319  and  _320
REMARK  130  A    between atoms: _319  and  _322
REMARK  131  A    between atoms: _322  and  _323
REMARK  132  A    between atoms: _326  and  _328
REMARK  133  A    between atoms: _328  and  _329
REMARK  134  A    between atoms: _328  and  _331
REMARK  135  A    between atoms: _331  and  _332
REMARK  136  A    between atoms: _335  and  _337
REMARK  137  A    between atoms: _337  and  _338
REMARK  138  A    between atoms: _337  and  _340
REMARK  139  A    between atoms: _340  and  _341
REMARK  140  A    between atoms: _344  and  _346
REMARK  141  A    between atoms: _346  and  _347
REMARK  142  A    between atoms: _346  and  _349
REMARK  143  A    between atoms: _349  and  _350
REMARK  144  A    between atoms: _353  and  _355
REMARK  145  A    between atoms: _355  and  _356
REMARK  146  A    between atoms: _358  and  _360
REMARK  147  A    between atoms: _360  and  _361
REMARK  148  A    between atoms: _364  and  _366
REMARK  149  A    between atoms: _366  and  _367
REMARK  150  A    between atoms: _366  and  _369
REMARK  151  A    between atoms: _369  and  _370
REMARK  152  A    between atoms: _373  and  _375
REMARK  153  A    between atoms: _375  and  _376
REMARK  154  A    between atoms: _375  and  _378
REMARK  155  A    between atoms: _378  and  _379
REMARK  156  A    between atoms: _382  and  _384
REMARK  157  A    between atoms: _384  and  _385
REMARK  158  A    between atoms: _384  and  _387
REMARK  159  A    between atoms: _387  and  _388
REMARK  160  A    between atoms: _391  and  _393
REMARK  161  A    between atoms: _393  and  _394
REMARK  162  A    between atoms: _393  and  _396
REMARK  163  A    between atoms: _399  and  _401
REMARK  164  A    between atoms: _401  and  _402
REMARK  165  A    between atoms: _401  and  _404
REMARK  166  A    between atoms: _404  and  _405
REMARK  167  A    between atoms: _408  and  _410
REMARK  168  A    between atoms: _410  and  _411
REMARK  169  A    between atoms: _410  and  _413
REMARK  170  A    between atoms: _413  and  _414
REMARK  171  A    between atoms: _417  and  _419
REMARK  172  A    between atoms: _419  and  _420
REMARK  173  A    between atoms: _422  and  _424
REMARK  174  A    between atoms: _424  and  _425
REMARK  175  A    between atoms: _427  and  _429
REMARK  176  A    between atoms: _429  and  _430
REMARK  177  A    between atoms: _429  and  _432
REMARK  178  A    between atoms: _435  and  _437
REMARK  179  A    between atoms: _437  and  _438
REMARK  180  A    between atoms: _440  and  _442
REMARK  181  A    between atoms: _442  and  _443
REMARK  182  A    between atoms: _445  and  _447
REMARK  183  A    between atoms: _447  and  _448
REMARK  184  A    between atoms: _447  and  _450
REMARK  185  A    between atoms: _450  and  _451
REMARK  186  A    between atoms: _457  and  _459
REMARK  187  A    between atoms: _459  and  _460
REMARK  188  A    between atoms: _459  and  _462
REMARK  189  A    between atoms: _462  and  _463
REMARK  190  A    between atoms: _466  and  _468
REMARK  191  A    between atoms: _468  and  _469
REMARK  192  A    between atoms: _468  and  _471
REMARK  193  A    between atoms: _474  and  _476
REMARK  194  A    between atoms: _476  and  _477
REMARK  195  A    between atoms: _476  and  _479
REMARK  196  A    between atoms: _479  and  _480
REMARK  197  A    between atoms: _483  and  _485
REMARK  198  A    between atoms: _485  and  _486
REMARK  199  A    between atoms: _485  and  _488
REMARK  200  A    between atoms: _488  and  _489
REMARK  201  A    between atoms: _493  and  _494
REMARK  202  A    between atoms: _499  and  _501
REMARK  203  A    between atoms: _501  and  _502
REMARK  204  A    between atoms: _501  and  _504
REMARK  205  A    between atoms: _507  and  _509
REMARK  206  A    between atoms: _509  and  _510
REMARK  207  A    between atoms: _509  and  _512
REMARK  208  A    between atoms: _512  and  _513
REMARK  209  A    between atoms: _518  and  _520
REMARK  210  A    between atoms: _520  and  _521
REMARK  211  A    between atoms: _520  and  _523
REMARK  212  A    between atoms: _523  and  _524
REMARK  213  A    between atoms: _527  and  _529
REMARK  214  A    between atoms: _529  and  _530
REMARK  215  A    between atoms: _529  and  _532
REMARK  216  A    between atoms: _532  and  _533
REMARK  217  A    between atoms: _536  and  _538
REMARK  218  A    between atoms: _538  and  _539
REMARK  219  A    between atoms: _541  and  _543
REMARK  220  A    between atoms: _543  and  _544
REMARK  221  A    between atoms: _543  and  _546
REMARK  222  A    between atoms: _546  and  _547
REMARK  223  A    between atoms: _547  and  _548
REMARK  224  A    between atoms: _548  and  _549
REMARK                            x       y       z     vdW  Elec       q    Type
REMARK                         _______ _______ _______ _____ _____    ______ ____
ROOT
ATOM      1  O   HOH     1     -27.979  14.654  14.167  0.00  0.00    +0.000 OA
ENDROOT
TORSDOF 0
REMARK  Name = ../refined-set-2016/2o4l/2o4l_pocket.pdb
REMARK  224 active torsions:
REMARK  status: ('A' for Active; 'I' for Inactive)
REMARK    1  A    between atoms: _1  and  _3
REMARK    2  A    between atoms: _3  and  _4
REMARK    3  A    between atoms: _3  and  _6
REMARK    4  A    between atoms: _6  and  _7
REMARK    5  A    between atoms: _7  and  _8
REMARK    6  A    between atoms: _8  and  _9
REMARK    7  A    between atoms: _18  and  _20
REMARK    8  A    between atoms: _20  and  _21
REMARK    9  A    between atoms: _20  and  _23
REMARK   10  A    between atoms: _23  and  _24
REMARK   11  A    between atoms: _27  and  _29
REMARK   12  A    between atoms: _29  and  _30
REMARK   13  A    between atoms: _29  and  _32
REMARK   14  A    between atoms: _32  and  _33
REMARK   15  A    between atoms: _36  and  _38
REMARK   16  A    between atoms: _38  and  _39
REMARK   17  A    between atoms: _38  and  _41
REMARK   18  A    between atoms: _41  and  _42
REMARK   19  A    between atoms: _45  and  _47
REMARK   20  A    between atoms: _47  and  _48
REMARK   21  A    between atoms: _47  and  _50
REMARK   22  A    between atoms: _50  and  _51
REMARK   23  A    between atoms: _54  and  _56
REMARK   24  A    between atoms: _56  and  _57
REMARK   25  A    between atoms: _56  and  _59
REMARK   26  A    between atoms: _59  and  _60
REMARK   27  A    between atoms: _63  and  _65
REMARK   28  A    between atoms: _65  and  _66
REMARK   29  A    between atoms: _68  and  _70
REMARK   30  A    between atoms: _70  and  _71
REMARK   31  A    between atoms: _74  and  _76
REMARK   32  A    between atoms: _76  and  _77
REMARK   33  A    between atoms: _76  and  _79
REMARK   34  A    between atoms: _79  and  _80
REMARK   35  A    between atoms: _83  and  _85
REMARK   36  A    between atoms: _85  and  _86
REMARK   37  A    between atoms: _85  and  _88
REMARK   38  A    between atoms: _88  and  _89
REMARK   39  A    between atoms: _92  and  _94
REMARK   40  A    between atoms: _94  and  _95
REMARK   41  A    between atoms: _94  and  _97
REMARK   42  A    between atoms: _97  and  _98
REMARK   43  A    between atoms: _101  and  _103
REMARK   44  A    between atoms: _103  and  _104
REMARK   45  A    between atoms: _103  and  _106
REMARK   46  A    between atoms: _109  and  _111
REMARK   47  A    between atoms: _111  and  _112
REMARK   48  A    between atoms: _111  and  _114
REMARK   49  A    between atoms: _114  and  _115
REMARK   50  A    between atoms: _115  and  _116
REMARK   51  A    between atoms: _116  and  _117
REMARK   52  A    between atoms: _117  and  _118
REMARK   53  A    between atoms: _122  and  _124
REMARK   54  A    between atoms: _124  and  _125
REMARK   55  A    between atoms: _124  and  _127
REMARK   56  A    between atoms: _127  and  _128
REMARK   57  A    between atoms: _128  and  _129
REMARK   58  A    between atoms: _131  and  _133
REMARK   59  A    between atoms: _133  and  _134
REMARK   60  A    between atoms: _133  and  _136
REMARK   61  A    between atoms: _136  and  _137
REMARK   62  A    between atoms: _140  and  _142
REMARK   63  A    between atoms: _142  and  _143
REMARK   64  A    between atoms: _145  and  _147
REMARK   65  A    between atoms: _147  and  _148
REMARK   66  A    between atoms: _150  and  _152
REMARK   67  A    between atoms: _152  and  _153
REMARK   68  A    between atoms: _152  and  _155
REMARK   69  A    between atoms: _158  and  _160
REMARK   70  A    between atoms: _160  and  _161
REMARK   71  A    between atoms: _163  and  _165
REMARK   72  A    between atoms: _165  and  _166
REMARK   73  A    between atoms: _168  and  _170
REMARK   74  A    between atoms: _170  and  _171
REMARK   75  A    between atoms: _170  and  _173
REMARK   76  A    between atoms: _173  and  _174
REMARK   77  A    between atoms: _180  and  _182
REMARK   78  A    between atoms: _182  and  _183
REMARK   79  A    between atoms: _182  and  _185
REMARK   80  A    between atoms: _185  and  _186
REMARK   81  A    between atoms: _189  and  _191
REMARK   82  A    between atoms: _191  and  _192
REMARK   83  A    between atoms: _191  and  _194
REMARK   84  A    between atoms: _194  and  _195
REMARK   85  A    between atoms: _198  and  _200
REMARK   86  A    between atoms: _200  and  _201
REMARK   87  A    between atoms: _200  and  _203
REMARK   88  A    between atoms: _203  and  _204
REMARK   89  A    between atoms: _208  and  _209
REMARK   90  A    between atoms: _214  and  _216
REMARK   91  A    between atoms: _216  and  _217
REMARK   92  A    between atoms: _216  and  _219
REMARK   93  A    between atoms: _222  and  _224
REMARK   94  A    between atoms: _224  and  _225
REMARK   95  A    between atoms: _224  and  _227
REMARK   96  A    between atoms: _227  and  _228
REMARK   97  A    between atoms: _233  and  _235
REMARK   98  A    between atoms: _235  and  _236
REMARK   99  A    between atoms: _235  and  _238
REMARK  100  A    between atoms: _238  and  _239
REMARK  101  A    between atoms: _242  and  _244
REMARK  102  A    between atoms: _244  and  _245
REMARK  103  A    between atoms: _244  and  _247
REMARK  104  A    between atoms: _247  and  _248
REMARK  105  A    between atoms: _251  and  _253
REMARK  106  A    between atoms: _253  and  _254
REMARK  107  A    between atoms: _256  and  _258
REMARK  108  A    between atoms: _258  and  _259
REMARK  109  A    between atoms: _258  and  _261
REMARK  110  A    between atoms: _261  and  _262
REMARK  111  A    between atoms: _262  and  _263
REMARK  112  A    between atoms: _263  and  _264
REMARK  113  A    between atoms: _273  and  _275
REMARK  114  A    between atoms: _275  and  _276
REMARK  115  A    between atoms: _275  and  _278
REMARK  116  A    between atoms: _278  and  _279
REMARK  117  A    between atoms: _284  and  _286
REMARK  118  A    between atoms: _286  and  _287
REMARK  119  A    between atoms: _286  and  _289
REMARK  120  A    between atoms: _289  and  _290
REMARK  121  A    between atoms: _290  and  _291
REMARK  122  A    between atoms: _291  and  _292
REMARK  123  A    between atoms: _302  and  _303
REMARK  124  A    between atoms: _308  and  _310
REMARK  125  A    between atoms: _310  and  _311
REMARK  126  A    between atoms: _310  and  _313
REMARK  127  A    between atoms: _313  and  _314
REMARK  128  A    between atoms: _317  and  _319
REMARK  129  A    between atoms: _319  and  _320
REMARK  130  A    between atoms: _319  and  _322
REMARK  131  A    between atoms: _322  and  _323
REMARK  132  A    between atoms: _326  and  _328
REMARK  133  A    between atoms: _328  and  _329
REMARK  134  A    between atoms: _328  and  _331
REMARK  135  A    between atoms: _331  and  _332
REMARK  136  A    between atoms: _335  and  _337
REMARK  137  A    between atoms: _337  and  _338
REMARK  138  A    between atoms: _337  and  _340
REMARK  139  A    between atoms: _340  and  _341
REMARK  140  A    between atoms: _344  and  _346
REMARK  141  A    between atoms: _346  and  _347
REMARK  142  A    between atoms: _346  and  _349
REMARK  143  A    between atoms: _349  and  _350
REMARK  144  A    between atoms: _353  and  _355
REMARK  145  A    between atoms: _355  and  _356
REMARK  146  A    between atoms: _358  and  _360
REMARK  147  A    between atoms: _360  and  _361
REMARK  148  A    between atoms: _364  and  _366
REMARK  149  A    between atoms: _366  and  _367
REMARK  150  A    between atoms: _366  and  _369
REMARK  151  A    between atoms: _369  and  _370
REMARK  152  A    between atoms: _373  and  _375
REMARK  153  A    between atoms: _375  and  _376
REMARK  154  A    between atoms: _375  and  _378
REMARK  155  A    between atoms: _378  and  _379
REMARK  156  A    between atoms: _382  and  _384
REMARK  157  A    between atoms: _384  and  _385
REMARK  158  A    between atoms: _384  and  _387
REMARK  159  A    between atoms: _387  and  _388
REMARK  160  A    between atoms: _391  and  _393
REMARK  161  A    between atoms: _393  and  _394
REMARK  162  A    between atoms: _393  and  _396
REMARK  163  A    between atoms: _399  and  _401
REMARK  164  A    between atoms: _401  and  _402
REMARK  165  A    between atoms: _401  and  _404
REMARK  166  A    between atoms: _404  and  _405
REMARK  167  A    between atoms: _408  and  _410
REMARK  168  A    between atoms: _410  and  _411
REMARK  169  A    between atoms: _410  and  _413
REMARK  170  A    between atoms: _413  and  _414
REMARK  171  A    between atoms: _417  and  _419
REMARK  172  A    between atoms: _419  and  _420
REMARK  173  A    between atoms: _422  and  _424
REMARK  174  A    between atoms: _424  and  _425
REMARK  175  A    between atoms: _427  and  _429
REMARK  176  A    between atoms: _429  and  _430
REMARK  177  A    between atoms: _429  and  _432
REMARK  178  A    between atoms: _435  and  _437
REMARK  179  A    between atoms: _437  and  _438
REMARK  180  A    between atoms: _440  and  _442
REMARK  181  A    between atoms: _442  and  _443
REMARK  182  A    between atoms: _445  and  _447
REMARK  183  A    between atoms: _447  and  _448
REMARK  184  A    between atoms: _447  and  _450
REMARK  185  A    between atoms: _450  and  _451
REMARK  186  A    between atoms: _457  and  _459
REMARK  187  A    between atoms: _459  and  _460
REMARK  188  A    between atoms: _459  and  _462
REMARK  189  A    between atoms: _462  and  _463
REMARK  190  A    between atoms: _466  and  _468
REMARK  191  A    between atoms: _468  and  _469
REMARK  192  A    between atoms: _468  and  _471
REMARK  193  A    between atoms: _474  and  _476
REMARK  194  A    between atoms: _476  and  _477
REMARK  195  A    between atoms: _476  and  _479
REMARK  196  A    between atoms: _479  and  _480
REMARK  197  A    between atoms: _483  and  _485
REMARK  198  A    between atoms: _485  and  _486
REMARK  199  A    between atoms: _485  and  _488
REMARK  200  A    between atoms: _488  and  _489
REMARK  201  A    between atoms: _493  and  _494
REMARK  202  A    between atoms: _499  and  _501
REMARK  203  A    between atoms: _501  and  _502
REMARK  204  A    between atoms: _501  and  _504
REMARK  205  A    between atoms: _507  and  _509
REMARK  206  A    between atoms: _509  and  _510
REMARK  207  A    between atoms: _509  and  _512
REMARK  208  A    between atoms: _512  and  _513
REMARK  209  A    between atoms: _518  and  _520
REMARK  210  A    between atoms: _520  and  _521
REMARK  211  A    between atoms: _520  and  _523
REMARK  212  A    between atoms: _523  and  _524
REMARK  213  A    between atoms: _527  and  _529
REMARK  214  A    between atoms: _529  and  _530
REMARK  215  A    between atoms: _529  and  _532
REMARK  216  A    between atoms: _532  and  _533
REMARK  217  A    between atoms: _536  and  _538
REMARK  218  A    between atoms: _538  and  _539
REMARK  219  A    between atoms: _541  and  _543
REMARK  220  A    between atoms: _543  and  _544
REMARK  221  A    between atoms: _543  and  _546
REMARK  222  A    between atoms: _546  and  _547
REMARK  223  A    between atoms: _547  and  _548
REMARK  224  A    between atoms: _548  and  _549
REMARK                            x       y       z     vdW  Elec       q    Type
REMARK                         _______ _______ _______ _____ _____    ______ ____
ROOT
ATOM      1  O   HOH     1      -3.652  22.250  11.244  0.00  0.00    +0.000 OA
ENDROOT
TORSDOF 0
REMARK  Name = ../refined-set-2016/2o4l/2o4l_pocket.pdb
REMARK  224 active torsions:
REMARK  status: ('A' for Active; 'I' for Inactive)
REMARK    1  A    between atoms: _1  and  _3
REMARK    2  A    between atoms: _3  and  _4
REMARK    3  A    between atoms: _3  and  _6
REMARK    4  A    between atoms: _6  and  _7
REMARK    5  A    between atoms: _7  and  _8
REMARK    6  A    between atoms: _8  and  _9
REMARK    7  A    between atoms: _18  and  _20
REMARK    8  A    between atoms: _20  and  _21
REMARK    9  A    between atoms: _20  and  _23
REMARK   10  A    between atoms: _23  and  _24
REMARK   11  A    between atoms: _27  and  _29
REMARK   12  A    between atoms: _29  and  _30
REMARK   13  A    between atoms: _29  and  _32
REMARK   14  A    between atoms: _32  and  _33
REMARK   15  A    between atoms: _36  and  _38
REMARK   16  A    between atoms: _38  and  _39
REMARK   17  A    between atoms: _38  and  _41
REMARK   18  A    between atoms: _41  and  _42
REMARK   19  A    between atoms: _45  and  _47
REMARK   20  A    between atoms: _47  and  _48
REMARK   21  A    between atoms: _47  and  _50
REMARK   22  A    between atoms: _50  and  _51
REMARK   23  A    between atoms: _54  and  _56
REMARK   24  A    between atoms: _56  and  _57
REMARK   25  A    between atoms: _56  and  _59
REMARK   26  A    between atoms: _59  and  _60
REMARK   27  A    between atoms: _63  and  _65
REMARK   28  A    between atoms: _65  and  _66
REMARK   29  A    between atoms: _68  and  _70
REMARK   30  A    between atoms: _70  and  _71
REMARK   31  A    between atoms: _74  and  _76
REMARK   32  A    between atoms: _76  and  _77
REMARK   33  A    between atoms: _76  and  _79
REMARK   34  A    between atoms: _79  and  _80
REMARK   35  A    between atoms: _83  and  _85
REMARK   36  A    between atoms: _85  and  _86
REMARK   37  A    between atoms: _85  and  _88
REMARK   38  A    between atoms: _88  and  _89
REMARK   39  A    between atoms: _92  and  _94
REMARK   40  A    between atoms: _94  and  _95
REMARK   41  A    between atoms: _94  and  _97
REMARK   42  A    between atoms: _97  and  _98
REMARK   43  A    between atoms: _101  and  _103
REMARK   44  A    between atoms: _103  and  _104
REMARK   45  A    between atoms: _103  and  _106
REMARK   46  A    between atoms: _109  and  _111
REMARK   47  A    between atoms: _111  and  _112
REMARK   48  A    between atoms: _111  and  _114
REMARK   49  A    between atoms: _114  and  _115
REMARK   50  A    between atoms: _115  and  _116
REMARK   51  A    between atoms: _116  and  _117
REMARK   52  A    between atoms: _117  and  _118
REMARK   53  A    between atoms: _122  and  _124
REMARK   54  A    between atoms: _124  and  _125
REMARK   55  A    between atoms: _124  and  _127
REMARK   56  A    between atoms: _127  and  _128
REMARK   57  A    between atoms: _128  and  _129
REMARK   58  A    between atoms: _131  and  _133
REMARK   59  A    between atoms: _133  and  _134
REMARK   60  A    between atoms: _133  and  _136
REMARK   61  A    between atoms: _136  and  _137
REMARK   62  A    between atoms: _140  and  _142
REMARK   63  A    between atoms: _142  and  _143
REMARK   64  A    between atoms: _145  and  _147
REMARK   65  A    between atoms: _147  and  _148
REMARK   66  A    between atoms: _150  and  _152
REMARK   67  A    between atoms: _152  and  _153
REMARK   68  A    between atoms: _152  and  _155
REMARK   69  A    between atoms: _158  and  _160
REMARK   70  A    between atoms: _160  and  _161
REMARK   71  A    between atoms: _163  and  _165
REMARK   72  A    between atoms: _165  and  _166
REMARK   73  A    between atoms: _168  and  _170
REMARK   74  A    between atoms: _170  and  _171
REMARK   75  A    between atoms: _170  and  _173
REMARK   76  A    between atoms: _173  and  _174
REMARK   77  A    between atoms: _180  and  _182
REMARK   78  A    between atoms: _182  and  _183
REMARK   79  A    between atoms: _182  and  _185
REMARK   80  A    between atoms: _185  and  _186
REMARK   81  A    between atoms: _189  and  _191
REMARK   82  A    between atoms: _191  and  _192
REMARK   83  A    between atoms: _191  and  _194
REMARK   84  A    between atoms: _194  and  _195
REMARK   85  A    between atoms: _198  and  _200
REMARK   86  A    between atoms: _200  and  _201
REMARK   87  A    between atoms: _200  and  _203
REMARK   88  A    between atoms: _203  and  _204
REMARK   89  A    between atoms: _208  and  _209
REMARK   90  A    between atoms: _214  and  _216
REMARK   91  A    between atoms: _216  and  _217
REMARK   92  A    between atoms: _216  and  _219
REMARK   93  A    between atoms: _222  and  _224
REMARK   94  A    between atoms: _224  and  _225
REMARK   95  A    between atoms: _224  and  _227
REMARK   96  A    between atoms: _227  and  _228
REMARK   97  A    between atoms: _233  and  _235
REMARK   98  A    between atoms: _235  and  _236
REMARK   99  A    between atoms: _235  and  _238
REMARK  100  A    between atoms: _238  and  _239
REMARK  101  A    between atoms: _242  and  _244
REMARK  102  A    between atoms: _244  and  _245
REMARK  103  A    between atoms: _244  and  _247
REMARK  104  A    between atoms: _247  and  _248
REMARK  105  A    between atoms: _251  and  _253
REMARK  106  A    between atoms: _253  and  _254
REMARK  107  A    between atoms: _256  and  _258
REMARK  108  A    between atoms: _258  and  _259
REMARK  109  A    between atoms: _258  and  _261
REMARK  110  A    between atoms: _261  and  _262
REMARK  111  A    between atoms: _262  and  _263
REMARK  112  A    between atoms: _263  and  _264
REMARK  113  A    between atoms: _273  and  _275
REMARK  114  A    between atoms: _275  and  _276
REMARK  115  A    between atoms: _275  and  _278
REMARK  116  A    between atoms: _278  and  _279
REMARK  117  A    between atoms: _284  and  _286
REMARK  118  A    between atoms: _286  and  _287
REMARK  119  A    between atoms: _286  and  _289
REMARK  120  A    between atoms: _289  and  _290
REMARK  121  A    between atoms: _290  and  _291
REMARK  122  A    between atoms: _291  and  _292
REMARK  123  A    between atoms: _302  and  _303
REMARK  124  A    between atoms: _308  and  _310
REMARK  125  A    between atoms: _310  and  _311
REMARK  126  A    between atoms: _310  and  _313
REMARK  127  A    between atoms: _313  and  _314
REMARK  128  A    between atoms: _317  and  _319
REMARK  129  A    between atoms: _319  and  _320
REMARK  130  A    between atoms: _319  and  _322
REMARK  131  A    between atoms: _322  and  _323
REMARK  132  A    between atoms: _326  and  _328
REMARK  133  A    between atoms: _328  and  _329
REMARK  134  A    between atoms: _328  and  _331
REMARK  135  A    between atoms: _331  and  _332
REMARK  136  A    between atoms: _335  and  _337
REMARK  137  A    between atoms: _337  and  _338
REMARK  138  A    between atoms: _337  and  _340
REMARK  139  A    between atoms: _340  and  _341
REMARK  140  A    between atoms: _344  and  _346
REMARK  141  A    between atoms: _346  and  _347
REMARK  142  A    between atoms: _346  and  _349
REMARK  143  A    between atoms: _349  and  _350
REMARK  144  A    between atoms: _353  and  _355
REMARK  145  A    between atoms: _355  and  _356
REMARK  146  A    between atoms: _358  and  _360
REMARK  147  A    between atoms: _360  and  _361
REMARK  148  A    between atoms: _364  and  _366
REMARK  149  A    between atoms: _366  and  _367
REMARK  150  A    between atoms: _366  and  _369
REMARK  151  A    between atoms: _369  and  _370
REMARK  152  A    between atoms: _373  and  _375
REMARK  153  A    between atoms: _375  and  _376
REMARK  154  A    between atoms: _375  and  _378
REMARK  155  A    between atoms: _378  and  _379
REMARK  156  A    between atoms: _382  and  _384
REMARK  157  A    between atoms: _384  and  _385
REMARK  158  A    between atoms: _384  and  _387
REMARK  159  A    between atoms: _387  and  _388
REMARK  160  A    between atoms: _391  and  _393
REMARK  161  A    between atoms: _393  and  _394
REMARK  162  A    between atoms: _393  and  _396
REMARK  163  A    between atoms: _399  and  _401
REMARK  164  A    between atoms: _401  and  _402
REMARK  165  A    between atoms: _401  and  _404
REMARK  166  A    between atoms: _404  and  _405
REMARK  167  A    between atoms: _408  and  _410
REMARK  168  A    between atoms: _410  and  _411
REMARK  169  A    between atoms: _410  and  _413
REMARK  170  A    between atoms: _413  and  _414
REMARK  171  A    between atoms: _417  and  _419
REMARK  172  A    between atoms: _419  and  _420
REMARK  173  A    between atoms: _422  and  _424
REMARK  174  A    between atoms: _424  and  _425
REMARK  175  A    between atoms: _427  and  _429
REMARK  176  A    between atoms: _429  and  _430
REMARK  177  A    between atoms: _429  and  _432
REMARK  178  A    between atoms: _435  and  _437
REMARK  179  A    between atoms: _437  and  _438
REMARK  180  A    between atoms: _440  and  _442
REMARK  181  A    between atoms: _442  and  _443
REMARK  182  A    between atoms: _445  and  _447
REMARK  183  A    between atoms: _447  and  _448
REMARK  184  A    between atoms: _447  and  _450
REMARK  185  A    between atoms: _450  and  _451
REMARK  186  A    between atoms: _457  and  _459
REMARK  187  A    between atoms: _459  and  _460
REMARK  188  A    between atoms: _459  and  _462
REMARK  189  A    between atoms: _462  and  _463
REMARK  190  A    between atoms: _466  and  _468
REMARK  191  A    between atoms: _468  and  _469
REMARK  192  A    between atoms: _468  and  _471
REMARK  193  A    between atoms: _474  and  _476
REMARK  194  A    between atoms: _476  and  _477
REMARK  195  A    between atoms: _476  and  _479
REMARK  196  A    between atoms: _479  and  _480
REMARK  197  A    between atoms: _483  and  _485
REMARK  198  A    between atoms: _485  and  _486
REMARK  199  A    between atoms: _485  and  _488
REMARK  200  A    between atoms: _488  and  _489
REMARK  201  A    between atoms: _493  and  _494
REMARK  202  A    between atoms: _499  and  _501
REMARK  203  A    between atoms: _501  and  _502
REMARK  204  A    between atoms: _501  and  _504
REMARK  205  A    between atoms: _507  and  _509
REMARK  206  A    between atoms: _509  and  _510
REMARK  207  A    between atoms: _509  and  _512
REMARK  208  A    between atoms: _512  and  _513
REMARK  209  A    between atoms: _518  and  _520
REMARK  210  A    between atoms: _520  and  _521
REMARK  211  A    between atoms: _520  and  _523
REMARK  212  A    between atoms: _523  and  _524
REMARK  213  A    between atoms: _527  and  _529
REMARK  214  A    between atoms: _529  and  _530
REMARK  215  A    between atoms: _529  and  _532
REMARK  216  A    between atoms: _532  and  _533
REMARK  217  A    between atoms: _536  and  _538
REMARK  218  A    between atoms: _538  and  _539
REMARK  219  A    between atoms: _541  and  _543
REMARK  220  A    between atoms: _543  and  _544
REMARK  221  A    between atoms: _543  and  _546
REMARK  222  A    between atoms: _546  and  _547
REMARK  223  A    between atoms: _547  and  _548
REMARK  224  A    between atoms: _548  and  _549
REMARK                            x       y       z     vdW  Elec       q    Type
REMARK                         _______ _______ _______ _____ _____    ______ ____
ROOT
ATOM      1  O   HOH     1     -27.269   9.779  13.843  0.00  0.00    +0.000 OA
ENDROOT
TORSDOF 0
REMARK  Name = ../refined-set-2016/2o4l/2o4l_pocket.pdb
REMARK  224 active torsions:
REMARK  status: ('A' for Active; 'I' for Inactive)
REMARK    1  A    between atoms: _1  and  _3
REMARK    2  A    between atoms: _3  and  _4
REMARK    3  A    between atoms: _3  and  _6
REMARK    4  A    between atoms: _6  and  _7
REMARK    5  A    between atoms: _7  and  _8
REMARK    6  A    between atoms: _8  and  _9
REMARK    7  A    between atoms: _18  and  _20
REMARK    8  A    between atoms: _20  and  _21
REMARK    9  A    between atoms: _20  and  _23
REMARK   10  A    between atoms: _23  and  _24
REMARK   11  A    between atoms: _27  and  _29
REMARK   12  A    between atoms: _29  and  _30
REMARK   13  A    between atoms: _29  and  _32
REMARK   14  A    between atoms: _32  and  _33
REMARK   15  A    between atoms: _36  and  _38
REMARK   16  A    between atoms: _38  and  _39
REMARK   17  A    between atoms: _38  and  _41
REMARK   18  A    between atoms: _41  and  _42
REMARK   19  A    between atoms: _45  and  _47
REMARK   20  A    between atoms: _47  and  _48
REMARK   21  A    between atoms: _47  and  _50
REMARK   22  A    between atoms: _50  and  _51
REMARK   23  A    between atoms: _54  and  _56
REMARK   24  A    between atoms: _56  and  _57
REMARK   25  A    between atoms: _56  and  _59
REMARK   26  A    between atoms: _59  and  _60
REMARK   27  A    between atoms: _63  and  _65
REMARK   28  A    between atoms: _65  and  _66
REMARK   29  A    between atoms: _68  and  _70
REMARK   30  A    between atoms: _70  and  _71
REMARK   31  A    between atoms: _74  and  _76
REMARK   32  A    between atoms: _76  and  _77
REMARK   33  A    between atoms: _76  and  _79
REMARK   34  A    between atoms: _79  and  _80
REMARK   35  A    between atoms: _83  and  _85
REMARK   36  A    between atoms: _85  and  _86
REMARK   37  A    between atoms: _85  and  _88
REMARK   38  A    between atoms: _88  and  _89
REMARK   39  A    between atoms: _92  and  _94
REMARK   40  A    between atoms: _94  and  _95
REMARK   41  A    between atoms: _94  and  _97
REMARK   42  A    between atoms: _97  and  _98
REMARK   43  A    between atoms: _101  and  _103
REMARK   44  A    between atoms: _103  and  _104
REMARK   45  A    between atoms: _103  and  _106
REMARK   46  A    between atoms: _109  and  _111
REMARK   47  A    between atoms: _111  and  _112
REMARK   48  A    between atoms: _111  and  _114
REMARK   49  A    between atoms: _114  and  _115
REMARK   50  A    between atoms: _115  and  _116
REMARK   51  A    between atoms: _116  and  _117
REMARK   52  A    between atoms: _117  and  _118
REMARK   53  A    between atoms: _122  and  _124
REMARK   54  A    between atoms: _124  and  _125
REMARK   55  A    between atoms: _124  and  _127
REMARK   56  A    between atoms: _127  and  _128
REMARK   57  A    between atoms: _128  and  _129
REMARK   58  A    between atoms: _131  and  _133
REMARK   59  A    between atoms: _133  and  _134
REMARK   60  A    between atoms: _133  and  _136
REMARK   61  A    between atoms: _136  and  _137
REMARK   62  A    between atoms: _140  and  _142
REMARK   63  A    between atoms: _142  and  _143
REMARK   64  A    between atoms: _145  and  _147
REMARK   65  A    between atoms: _147  and  _148
REMARK   66  A    between atoms: _150  and  _152
REMARK   67  A    between atoms: _152  and  _153
REMARK   68  A    between atoms: _152  and  _155
REMARK   69  A    between atoms: _158  and  _160
REMARK   70  A    between atoms: _160  and  _161
REMARK   71  A    between atoms: _163  and  _165
REMARK   72  A    between atoms: _165  and  _166
REMARK   73  A    between atoms: _168  and  _170
REMARK   74  A    between atoms: _170  and  _171
REMARK   75  A    between atoms: _170  and  _173
REMARK   76  A    between atoms: _173  and  _174
REMARK   77  A    between atoms: _180  and  _182
REMARK   78  A    between atoms: _182  and  _183
REMARK   79  A    between atoms: _182  and  _185
REMARK   80  A    between atoms: _185  and  _186
REMARK   81  A    between atoms: _189  and  _191
REMARK   82  A    between atoms: _191  and  _192
REMARK   83  A    between atoms: _191  and  _194
REMARK   84  A    between atoms: _194  and  _195
REMARK   85  A    between atoms: _198  and  _200
REMARK   86  A    between atoms: _200  and  _201
REMARK   87  A    between atoms: _200  and  _203
REMARK   88  A    between atoms: _203  and  _204
REMARK   89  A    between atoms: _208  and  _209
REMARK   90  A    between atoms: _214  and  _216
REMARK   91  A    between atoms: _216  and  _217
REMARK   92  A    between atoms: _216  and  _219
REMARK   93  A    between atoms: _222  and  _224
REMARK   94  A    between atoms: _224  and  _225
REMARK   95  A    between atoms: _224  and  _227
REMARK   96  A    between atoms: _227  and  _228
REMARK   97  A    between atoms: _233  and  _235
REMARK   98  A    between atoms: _235  and  _236
REMARK   99  A    between atoms: _235  and  _238
REMARK  100  A    between atoms: _238  and  _239
REMARK  101  A    between atoms: _242  and  _244
REMARK  102  A    between atoms: _244  and  _245
REMARK  103  A    between atoms: _244  and  _247
REMARK  104  A    between atoms: _247  and  _248
REMARK  105  A    between atoms: _251  and  _253
REMARK  106  A    between atoms: _253  and  _254
REMARK  107  A    between atoms: _256  and  _258
REMARK  108  A    between atoms: _258  and  _259
REMARK  109  A    between atoms: _258  and  _261
REMARK  110  A    between atoms: _261  and  _262
REMARK  111  A    between atoms: _262  and  _263
REMARK  112  A    between atoms: _263  and  _264
REMARK  113  A    between atoms: _273  and  _275
REMARK  114  A    between atoms: _275  and  _276
REMARK  115  A    between atoms: _275  and  _278
REMARK  116  A    between atoms: _278  and  _279
REMARK  117  A    between atoms: _284  and  _286
REMARK  118  A    between atoms: _286  and  _287
REMARK  119  A    between atoms: _286  and  _289
REMARK  120  A    between atoms: _289  and  _290
REMARK  121  A    between atoms: _290  and  _291
REMARK  122  A    between atoms: _291  and  _292
REMARK  123  A    between atoms: _302  and  _303
REMARK  124  A    between atoms: _308  and  _310
REMARK  125  A    between atoms: _310  and  _311
REMARK  126  A    between atoms: _310  and  _313
REMARK  127  A    between atoms: _313  and  _314
REMARK  128  A    between atoms: _317  and  _319
REMARK  129  A    between atoms: _319  and  _320
REMARK  130  A    between atoms: _319  and  _322
REMARK  131  A    between atoms: _322  and  _323
REMARK  132  A    between atoms: _326  and  _328
REMARK  133  A    between atoms: _328  and  _329
REMARK  134  A    between atoms: _328  and  _331
REMARK  135  A    between atoms: _331  and  _332
REMARK  136  A    between atoms: _335  and  _337
REMARK  137  A    between atoms: _337  and  _338
REMARK  138  A    between atoms: _337  and  _340
REMARK  139  A    between atoms: _340  and  _341
REMARK  140  A    between atoms: _344  and  _346
REMARK  141  A    between atoms: _346  and  _347
REMARK  142  A    between atoms: _346  and  _349
REMARK  143  A    between atoms: _349  and  _350
REMARK  144  A    between atoms: _353  and  _355
REMARK  145  A    between atoms: _355  and  _356
REMARK  146  A    between atoms: _358  and  _360
REMARK  147  A    between atoms: _360  and  _361
REMARK  148  A    between atoms: _364  and  _366
REMARK  149  A    between atoms: _366  and  _367
REMARK  150  A    between atoms: _366  and  _369
REMARK  151  A    between atoms: _369  and  _370
REMARK  152  A    between atoms: _373  and  _375
REMARK  153  A    between atoms: _375  and  _376
REMARK  154  A    between atoms: _375  and  _378
REMARK  155  A    between atoms: _378  and  _379
REMARK  156  A    between atoms: _382  and  _384
REMARK  157  A    between atoms: _384  and  _385
REMARK  158  A    between atoms: _384  and  _387
REMARK  159  A    between atoms: _387  and  _388
REMARK  160  A    between atoms: _391  and  _393
REMARK  161  A    between atoms: _393  and  _394
REMARK  162  A    between atoms: _393  and  _396
REMARK  163  A    between atoms: _399  and  _401
REMARK  164  A    between atoms: _401  and  _402
REMARK  165  A    between atoms: _401  and  _404
REMARK  166  A    between atoms: _404  and  _405
REMARK  167  A    between atoms: _408  and  _410
REMARK  168  A    between atoms: _410  and  _411
REMARK  169  A    between atoms: _410  and  _413
REMARK  170  A    between atoms: _413  and  _414
REMARK  171  A    between atoms: _417  and  _419
REMARK  172  A    between atoms: _419  and  _420
REMARK  173  A    between atoms: _422  and  _424
REMARK  174  A    between atoms: _424  and  _425
REMARK  175  A    between atoms: _427  and  _429
REMARK  176  A    between atoms: _429  and  _430
REMARK  177  A    between atoms: _429  and  _432
REMARK  178  A    between atoms: _435  and  _437
REMARK  179  A    between atoms: _437  and  _438
REMARK  180  A    between atoms: _440  and  _442
REMARK  181  A    between atoms: _442  and  _443
REMARK  182  A    between atoms: _445  and  _447
REMARK  183  A    between atoms: _447  and  _448
REMARK  184  A    between atoms: _447  and  _450
REMARK  185  A    between atoms: _450  and  _451
REMARK  186  A    between atoms: _457  and  _459
REMARK  187  A    between atoms: _459  and  _460
REMARK  188  A    between atoms: _459  and  _462
REMARK  189  A    between atoms: _462  and  _463
REMARK  190  A    between atoms: _466  and  _468
REMARK  191  A    between atoms: _468  and  _469
REMARK  192  A    between atoms: _468  and  _471
REMARK  193  A    between atoms: _474  and  _476
REMARK  194  A    between atoms: _476  and  _477
REMARK  195  A    between atoms: _476  and  _479
REMARK  196  A    between atoms: _479  and  _480
REMARK  197  A    between atoms: _483  and  _485
REMARK  198  A    between atoms: _485  and  _486
REMARK  199  A    between atoms: _485  and  _488
REMARK  200  A    between atoms: _488  and  _489
REMARK  201  A    between atoms: _493  and  _494
REMARK  202  A    between atoms: _499  and  _501
REMARK  203  A    between atoms: _501  and  _502
REMARK  204  A    between atoms: _501  and  _504
REMARK  205  A    between atoms: _507  and  _509
REMARK  206  A    between atoms: _509  and  _510
REMARK  207  A    between atoms: _509  and  _512
REMARK  208  A    between atoms: _512  and  _513
REMARK  209  A    between atoms: _518  and  _520
REMARK  210  A    between atoms: _520  and  _521
REMARK  211  A    between atoms: _520  and  _523
REMARK  212  A    between atoms: _523  and  _524
REMARK  213  A    between atoms: _527  and  _529
REMARK  214  A    between atoms: _529  and  _530
REMARK  215  A    between atoms: _529  and  _532
REMARK  216  A    between atoms: _532  and  _533
REMARK  217  A    between atoms: _536  and  _538
REMARK  218  A    between atoms: _538  and  _539
REMARK  219  A    between atoms: _541  and  _543
REMARK  220  A    between atoms: _543  and  _544
REMARK  221  A    between atoms: _543  and  _546
REMARK  222  A    between atoms: _546  and  _547
REMARK  223  A    between atoms: _547  and  _548
REMARK  224  A    between atoms: _548  and  _549
REMARK                            x       y       z     vdW  Elec       q    Type
REMARK                         _______ _______ _______ _____ _____    ______ ____
ROOT
ATOM      1  O   HOH     1     -25.089  10.475  21.065  0.00  0.00    +0.000 OA
ENDROOT
TORSDOF 0
REMARK  Name = ../refined-set-2016/2o4l/2o4l_pocket.pdb
REMARK  224 active torsions:
REMARK  status: ('A' for Active; 'I' for Inactive)
REMARK    1  A    between atoms: _1  and  _3
REMARK    2  A    between atoms: _3  and  _4
REMARK    3  A    between atoms: _3  and  _6
REMARK    4  A    between atoms: _6  and  _7
REMARK    5  A    between atoms: _7  and  _8
REMARK    6  A    between atoms: _8  and  _9
REMARK    7  A    between atoms: _18  and  _20
REMARK    8  A    between atoms: _20  and  _21
REMARK    9  A    between atoms: _20  and  _23
REMARK   10  A    between atoms: _23  and  _24
REMARK   11  A    between atoms: _27  and  _29
REMARK   12  A    between atoms: _29  and  _30
REMARK   13  A    between atoms: _29  and  _32
REMARK   14  A    between atoms: _32  and  _33
REMARK   15  A    between atoms: _36  and  _38
REMARK   16  A    between atoms: _38  and  _39
REMARK   17  A    between atoms: _38  and  _41
REMARK   18  A    between atoms: _41  and  _42
REMARK   19  A    between atoms: _45  and  _47
REMARK   20  A    between atoms: _47  and  _48
REMARK   21  A    between atoms: _47  and  _50
REMARK   22  A    between atoms: _50  and  _51
REMARK   23  A    between atoms: _54  and  _56
REMARK   24  A    between atoms: _56  and  _57
REMARK   25  A    between atoms: _56  and  _59
REMARK   26  A    between atoms: _59  and  _60
REMARK   27  A    between atoms: _63  and  _65
REMARK   28  A    between atoms: _65  and  _66
REMARK   29  A    between atoms: _68  and  _70
REMARK   30  A    between atoms: _70  and  _71
REMARK   31  A    between atoms: _74  and  _76
REMARK   32  A    between atoms: _76  and  _77
REMARK   33  A    between atoms: _76  and  _79
REMARK   34  A    between atoms: _79  and  _80
REMARK   35  A    between atoms: _83  and  _85
REMARK   36  A    between atoms: _85  and  _86
REMARK   37  A    between atoms: _85  and  _88
REMARK   38  A    between atoms: _88  and  _89
REMARK   39  A    between atoms: _92  and  _94
REMARK   40  A    between atoms: _94  and  _95
REMARK   41  A    between atoms: _94  and  _97
REMARK   42  A    between atoms: _97  and  _98
REMARK   43  A    between atoms: _101  and  _103
REMARK   44  A    between atoms: _103  and  _104
REMARK   45  A    between atoms: _103  and  _106
REMARK   46  A    between atoms: _109  and  _111
REMARK   47  A    between atoms: _111  and  _112
REMARK   48  A    between atoms: _111  and  _114
REMARK   49  A    between atoms: _114  and  _115
REMARK   50  A    between atoms: _115  and  _116
REMARK   51  A    between atoms: _116  and  _117
REMARK   52  A    between atoms: _117  and  _118
REMARK   53  A    between atoms: _122  and  _124
REMARK   54  A    between atoms: _124  and  _125
REMARK   55  A    between atoms: _124  and  _127
REMARK   56  A    between atoms: _127  and  _128
REMARK   57  A    between atoms: _128  and  _129
REMARK   58  A    between atoms: _131  and  _133
REMARK   59  A    between atoms: _133  and  _134
REMARK   60  A    between atoms: _133  and  _136
REMARK   61  A    between atoms: _136  and  _137
REMARK   62  A    between atoms: _140  and  _142
REMARK   63  A    between atoms: _142  and  _143
REMARK   64  A    between atoms: _145  and  _147
REMARK   65  A    between atoms: _147  and  _148
REMARK   66  A    between atoms: _150  and  _152
REMARK   67  A    between atoms: _152  and  _153
REMARK   68  A    between atoms: _152  and  _155
REMARK   69  A    between atoms: _158  and  _160
REMARK   70  A    between atoms: _160  and  _161
REMARK   71  A    between atoms: _163  and  _165
REMARK   72  A    between atoms: _165  and  _166
REMARK   73  A    between atoms: _168  and  _170
REMARK   74  A    between atoms: _170  and  _171
REMARK   75  A    between atoms: _170  and  _173
REMARK   76  A    between atoms: _173  and  _174
REMARK   77  A    between atoms: _180  and  _182
REMARK   78  A    between atoms: _182  and  _183
REMARK   79  A    between atoms: _182  and  _185
REMARK   80  A    between atoms: _185  and  _186
REMARK   81  A    between atoms: _189  and  _191
REMARK   82  A    between atoms: _191  and  _192
REMARK   83  A    between atoms: _191  and  _194
REMARK   84  A    between atoms: _194  and  _195
REMARK   85  A    between atoms: _198  and  _200
REMARK   86  A    between atoms: _200  and  _201
REMARK   87  A    between atoms: _200  and  _203
REMARK   88  A    between atoms: _203  and  _204
REMARK   89  A    between atoms: _208  and  _209
REMARK   90  A    between atoms: _214  and  _216
REMARK   91  A    between atoms: _216  and  _217
REMARK   92  A    between atoms: _216  and  _219
REMARK   93  A    between atoms: _222  and  _224
REMARK   94  A    between atoms: _224  and  _225
REMARK   95  A    between atoms: _224  and  _227
REMARK   96  A    between atoms: _227  and  _228
REMARK   97  A    between atoms: _233  and  _235
REMARK   98  A    between atoms: _235  and  _236
REMARK   99  A    between atoms: _235  and  _238
REMARK  100  A    between atoms: _238  and  _239
REMARK  101  A    between atoms: _242  and  _244
REMARK  102  A    between atoms: _244  and  _245
REMARK  103  A    between atoms: _244  and  _247
REMARK  104  A    between atoms: _247  and  _248
REMARK  105  A    between atoms: _251  and  _253
REMARK  106  A    between atoms: _253  and  _254
REMARK  107  A    between atoms: _256  and  _258
REMARK  108  A    between atoms: _258  and  _259
REMARK  109  A    between atoms: _258  and  _261
REMARK  110  A    between atoms: _261  and  _262
REMARK  111  A    between atoms: _262  and  _263
REMARK  112  A    between atoms: _263  and  _264
REMARK  113  A    between atoms: _273  and  _275
REMARK  114  A    between atoms: _275  and  _276
REMARK  115  A    between atoms: _275  and  _278
REMARK  116  A    between atoms: _278  and  _279
REMARK  117  A    between atoms: _284  and  _286
REMARK  118  A    between atoms: _286  and  _287
REMARK  119  A    between atoms: _286  and  _289
REMARK  120  A    between atoms: _289  and  _290
REMARK  121  A    between atoms: _290  and  _291
REMARK  122  A    between atoms: _291  and  _292
REMARK  123  A    between atoms: _302  and  _303
REMARK  124  A    between atoms: _308  and  _310
REMARK  125  A    between atoms: _310  and  _311
REMARK  126  A    between atoms: _310  and  _313
REMARK  127  A    between atoms: _313  and  _314
REMARK  128  A    between atoms: _317  and  _319
REMARK  129  A    between atoms: _319  and  _320
REMARK  130  A    between atoms: _319  and  _322
REMARK  131  A    between atoms: _322  and  _323
REMARK  132  A    between atoms: _326  and  _328
REMARK  133  A    between atoms: _328  and  _329
REMARK  134  A    between atoms: _328  and  _331
REMARK  135  A    between atoms: _331  and  _332
REMARK  136  A    between atoms: _335  and  _337
REMARK  137  A    between atoms: _337  and  _338
REMARK  138  A    between atoms: _337  and  _340
REMARK  139  A    between atoms: _340  and  _341
REMARK  140  A    between atoms: _344  and  _346
REMARK  141  A    between atoms: _346  and  _347
REMARK  142  A    between atoms: _346  and  _349
REMARK  143  A    between atoms: _349  and  _350
REMARK  144  A    between atoms: _353  and  _355
REMARK  145  A    between atoms: _355  and  _356
REMARK  146  A    between atoms: _358  and  _360
REMARK  147  A    between atoms: _360  and  _361
REMARK  148  A    between atoms: _364  and  _366
REMARK  149  A    between atoms: _366  and  _367
REMARK  150  A    between atoms: _366  and  _369
REMARK  151  A    between atoms: _369  and  _370
REMARK  152  A    between atoms: _373  and  _375
REMARK  153  A    between atoms: _375  and  _376
REMARK  154  A    between atoms: _375  and  _378
REMARK  155  A    between atoms: _378  and  _379
REMARK  156  A    between atoms: _382  and  _384
REMARK  157  A    between atoms: _384  and  _385
REMARK  158  A    between atoms: _384  and  _387
REMARK  159  A    between atoms: _387  and  _388
REMARK  160  A    between atoms: _391  and  _393
REMARK  161  A    between atoms: _393  and  _394
REMARK  162  A    between atoms: _393  and  _396
REMARK  163  A    between atoms: _399  and  _401
REMARK  164  A    between atoms: _401  and  _402
REMARK  165  A    between atoms: _401  and  _404
REMARK  166  A    between atoms: _404  and  _405
REMARK  167  A    between atoms: _408  and  _410
REMARK  168  A    between atoms: _410  and  _411
REMARK  169  A    between atoms: _410  and  _413
REMARK  170  A    between atoms: _413  and  _414
REMARK  171  A    between atoms: _417  and  _419
REMARK  172  A    between atoms: _419  and  _420
REMARK  173  A    between atoms: _422  and  _424
REMARK  174  A    between atoms: _424  and  _425
REMARK  175  A    between atoms: _427  and  _429
REMARK  176  A    between atoms: _429  and  _430
REMARK  177  A    between atoms: _429  and  _432
REMARK  178  A    between atoms: _435  and  _437
REMARK  179  A    between atoms: _437  and  _438
REMARK  180  A    between atoms: _440  and  _442
REMARK  181  A    between atoms: _442  and  _443
REMARK  182  A    between atoms: _445  and  _447
REMARK  183  A    between atoms: _447  and  _448
REMARK  184  A    between atoms: _447  and  _450
REMARK  185  A    between atoms: _450  and  _451
REMARK  186  A    between atoms: _457  and  _459
REMARK  187  A    between atoms: _459  and  _460
REMARK  188  A    between atoms: _459  and  _462
REMARK  189  A    between atoms: _462  and  _463
REMARK  190  A    between atoms: _466  and  _468
REMARK  191  A    between atoms: _468  and  _469
REMARK  192  A    between atoms: _468  and  _471
REMARK  193  A    between atoms: _474  and  _476
REMARK  194  A    between atoms: _476  and  _477
REMARK  195  A    between atoms: _476  and  _479
REMARK  196  A    between atoms: _479  and  _480
REMARK  197  A    between atoms: _483  and  _485
REMARK  198  A    between atoms: _485  and  _486
REMARK  199  A    between atoms: _485  and  _488
REMARK  200  A    between atoms: _488  and  _489
REMARK  201  A    between atoms: _493  and  _494
REMARK  202  A    between atoms: _499  and  _501
REMARK  203  A    between atoms: _501  and  _502
REMARK  204  A    between atoms: _501  and  _504
REMARK  205  A    between atoms: _507  and  _509
REMARK  206  A    between atoms: _509  and  _510
REMARK  207  A    between atoms: _509  and  _512
REMARK  208  A    between atoms: _512  and  _513
REMARK  209  A    between atoms: _518  and  _520
REMARK  210  A    between atoms: _520  and  _521
REMARK  211  A    between atoms: _520  and  _523
REMARK  212  A    between atoms: _523  and  _524
REMARK  213  A    between atoms: _527  and  _529
REMARK  214  A    between atoms: _529  and  _530
REMARK  215  A    between atoms: _529  and  _532
REMARK  216  A    between atoms: _532  and  _533
REMARK  217  A    between atoms: _536  and  _538
REMARK  218  A    between atoms: _538  and  _539
REMARK  219  A    between atoms: _541  and  _543
REMARK  220  A    between atoms: _543  and  _544
REMARK  221  A    between atoms: _543  and  _546
REMARK  222  A    between atoms: _546  and  _547
REMARK  223  A    between atoms: _547  and  _548
REMARK  224  A    between atoms: _548  and  _549
REMARK                            x       y       z     vdW  Elec       q    Type
REMARK                         _______ _______ _______ _____ _____    ______ ____
ROOT
ATOM      1  O   HOH     1     -26.023  20.453  19.412  0.00  0.00    +0.000 OA
ENDROOT
TORSDOF 0
REMARK  Name = ../refined-set-2016/2o4l/2o4l_pocket.pdb
REMARK  224 active torsions:
REMARK  status: ('A' for Active; 'I' for Inactive)
REMARK    1  A    between atoms: _1  and  _3
REMARK    2  A    between atoms: _3  and  _4
REMARK    3  A    between atoms: _3  and  _6
REMARK    4  A    between atoms: _6  and  _7
REMARK    5  A    between atoms: _7  and  _8
REMARK    6  A    between atoms: _8  and  _9
REMARK    7  A    between atoms: _18  and  _20
REMARK    8  A    between atoms: _20  and  _21
REMARK    9  A    between atoms: _20  and  _23
REMARK   10  A    between atoms: _23  and  _24
REMARK   11  A    between atoms: _27  and  _29
REMARK   12  A    between atoms: _29  and  _30
REMARK   13  A    between atoms: _29  and  _32
REMARK   14  A    between atoms: _32  and  _33
REMARK   15  A    between atoms: _36  and  _38
REMARK   16  A    between atoms: _38  and  _39
REMARK   17  A    between atoms: _38  and  _41
REMARK   18  A    between atoms: _41  and  _42
REMARK   19  A    between atoms: _45  and  _47
REMARK   20  A    between atoms: _47  and  _48
REMARK   21  A    between atoms: _47  and  _50
REMARK   22  A    between atoms: _50  and  _51
REMARK   23  A    between atoms: _54  and  _56
REMARK   24  A    between atoms: _56  and  _57
REMARK   25  A    between atoms: _56  and  _59
REMARK   26  A    between atoms: _59  and  _60
REMARK   27  A    between atoms: _63  and  _65
REMARK   28  A    between atoms: _65  and  _66
REMARK   29  A    between atoms: _68  and  _70
REMARK   30  A    between atoms: _70  and  _71
REMARK   31  A    between atoms: _74  and  _76
REMARK   32  A    between atoms: _76  and  _77
REMARK   33  A    between atoms: _76  and  _79
REMARK   34  A    between atoms: _79  and  _80
REMARK   35  A    between atoms: _83  and  _85
REMARK   36  A    between atoms: _85  and  _86
REMARK   37  A    between atoms: _85  and  _88
REMARK   38  A    between atoms: _88  and  _89
REMARK   39  A    between atoms: _92  and  _94
REMARK   40  A    between atoms: _94  and  _95
REMARK   41  A    between atoms: _94  and  _97
REMARK   42  A    between atoms: _97  and  _98
REMARK   43  A    between atoms: _101  and  _103
REMARK   44  A    between atoms: _103  and  _104
REMARK   45  A    between atoms: _103  and  _106
REMARK   46  A    between atoms: _109  and  _111
REMARK   47  A    between atoms: _111  and  _112
REMARK   48  A    between atoms: _111  and  _114
REMARK   49  A    between atoms: _114  and  _115
REMARK   50  A    between atoms: _115  and  _116
REMARK   51  A    between atoms: _116  and  _117
REMARK   52  A    between atoms: _117  and  _118
REMARK   53  A    between atoms: _122  and  _124
REMARK   54  A    between atoms: _124  and  _125
REMARK   55  A    between atoms: _124  and  _127
REMARK   56  A    between atoms: _127  and  _128
REMARK   57  A    between atoms: _128  and  _129
REMARK   58  A    between atoms: _131  and  _133
REMARK   59  A    between atoms: _133  and  _134
REMARK   60  A    between atoms: _133  and  _136
REMARK   61  A    between atoms: _136  and  _137
REMARK   62  A    between atoms: _140  and  _142
REMARK   63  A    between atoms: _142  and  _143
REMARK   64  A    between atoms: _145  and  _147
REMARK   65  A    between atoms: _147  and  _148
REMARK   66  A    between atoms: _150  and  _152
REMARK   67  A    between atoms: _152  and  _153
REMARK   68  A    between atoms: _152  and  _155
REMARK   69  A    between atoms: _158  and  _160
REMARK   70  A    between atoms: _160  and  _161
REMARK   71  A    between atoms: _163  and  _165
REMARK   72  A    between atoms: _165  and  _166
REMARK   73  A    between atoms: _168  and  _170
REMARK   74  A    between atoms: _170  and  _171
REMARK   75  A    between atoms: _170  and  _173
REMARK   76  A    between atoms: _173  and  _174
REMARK   77  A    between atoms: _180  and  _182
REMARK   78  A    between atoms: _182  and  _183
REMARK   79  A    between atoms: _182  and  _185
REMARK   80  A    between atoms: _185  and  _186
REMARK   81  A    between atoms: _189  and  _191
REMARK   82  A    between atoms: _191  and  _192
REMARK   83  A    between atoms: _191  and  _194
REMARK   84  A    between atoms: _194  and  _195
REMARK   85  A    between atoms: _198  and  _200
REMARK   86  A    between atoms: _200  and  _201
REMARK   87  A    between atoms: _200  and  _203
REMARK   88  A    between atoms: _203  and  _204
REMARK   89  A    between atoms: _208  and  _209
REMARK   90  A    between atoms: _214  and  _216
REMARK   91  A    between atoms: _216  and  _217
REMARK   92  A    between atoms: _216  and  _219
REMARK   93  A    between atoms: _222  and  _224
REMARK   94  A    between atoms: _224  and  _225
REMARK   95  A    between atoms: _224  and  _227
REMARK   96  A    between atoms: _227  and  _228
REMARK   97  A    between atoms: _233  and  _235
REMARK   98  A    between atoms: _235  and  _236
REMARK   99  A    between atoms: _235  and  _238
REMARK  100  A    between atoms: _238  and  _239
REMARK  101  A    between atoms: _242  and  _244
REMARK  102  A    between atoms: _244  and  _245
REMARK  103  A    between atoms: _244  and  _247
REMARK  104  A    between atoms: _247  and  _248
REMARK  105  A    between atoms: _251  and  _253
REMARK  106  A    between atoms: _253  and  _254
REMARK  107  A    between atoms: _256  and  _258
REMARK  108  A    between atoms: _258  and  _259
REMARK  109  A    between atoms: _258  and  _261
REMARK  110  A    between atoms: _261  and  _262
REMARK  111  A    between atoms: _262  and  _263
REMARK  112  A    between atoms: _263  and  _264
REMARK  113  A    between atoms: _273  and  _275
REMARK  114  A    between atoms: _275  and  _276
REMARK  115  A    between atoms: _275  and  _278
REMARK  116  A    between atoms: _278  and  _279
REMARK  117  A    between atoms: _284  and  _286
REMARK  118  A    between atoms: _286  and  _287
REMARK  119  A    between atoms: _286  and  _289
REMARK  120  A    between atoms: _289  and  _290
REMARK  121  A    between atoms: _290  and  _291
REMARK  122  A    between atoms: _291  and  _292
REMARK  123  A    between atoms: _302  and  _303
REMARK  124  A    between atoms: _308  and  _310
REMARK  125  A    between atoms: _310  and  _311
REMARK  126  A    between atoms: _310  and  _313
REMARK  127  A    between atoms: _313  and  _314
REMARK  128  A    between atoms: _317  and  _319
REMARK  129  A    between atoms: _319  and  _320
REMARK  130  A    between atoms: _319  and  _322
REMARK  131  A    between atoms: _322  and  _323
REMARK  132  A    between atoms: _326  and  _328
REMARK  133  A    between atoms: _328  and  _329
REMARK  134  A    between atoms: _328  and  _331
REMARK  135  A    between atoms: _331  and  _332
REMARK  136  A    between atoms: _335  and  _337
REMARK  137  A    between atoms: _337  and  _338
REMARK  138  A    between atoms: _337  and  _340
REMARK  139  A    between atoms: _340  and  _341
REMARK  140  A    between atoms: _344  and  _346
REMARK  141  A    between atoms: _346  and  _347
REMARK  142  A    between atoms: _346  and  _349
REMARK  143  A    between atoms: _349  and  _350
REMARK  144  A    between atoms: _353  and  _355
REMARK  145  A    between atoms: _355  and  _356
REMARK  146  A    between atoms: _358  and  _360
REMARK  147  A    between atoms: _360  and  _361
REMARK  148  A    between atoms: _364  and  _366
REMARK  149  A    between atoms: _366  and  _367
REMARK  150  A    between atoms: _366  and  _369
REMARK  151  A    between atoms: _369  and  _370
REMARK  152  A    between atoms: _373  and  _375
REMARK  153  A    between atoms: _375  and  _376
REMARK  154  A    between atoms: _375  and  _378
REMARK  155  A    between atoms: _378  and  _379
REMARK  156  A    between atoms: _382  and  _384
REMARK  157  A    between atoms: _384  and  _385
REMARK  158  A    between atoms: _384  and  _387
REMARK  159  A    between atoms: _387  and  _388
REMARK  160  A    between atoms: _391  and  _393
REMARK  161  A    between atoms: _393  and  _394
REMARK  162  A    between atoms: _393  and  _396
REMARK  163  A    between atoms: _399  and  _401
REMARK  164  A    between atoms: _401  and  _402
REMARK  165  A    between atoms: _401  and  _404
REMARK  166  A    between atoms: _404  and  _405
REMARK  167  A    between atoms: _408  and  _410
REMARK  168  A    between atoms: _410  and  _411
REMARK  169  A    between atoms: _410  and  _413
REMARK  170  A    between atoms: _413  and  _414
REMARK  171  A    between atoms: _417  and  _419
REMARK  172  A    between atoms: _419  and  _420
REMARK  173  A    between atoms: _422  and  _424
REMARK  174  A    between atoms: _424  and  _425
REMARK  175  A    between atoms: _427  and  _429
REMARK  176  A    between atoms: _429  and  _430
REMARK  177  A    between atoms: _429  and  _432
REMARK  178  A    between atoms: _435  and  _437
REMARK  179  A    between atoms: _437  and  _438
REMARK  180  A    between atoms: _440  and  _442
REMARK  181  A    between atoms: _442  and  _443
REMARK  182  A    between atoms: _445  and  _447
REMARK  183  A    between atoms: _447  and  _448
REMARK  184  A    between atoms: _447  and  _450
REMARK  185  A    between atoms: _450  and  _451
REMARK  186  A    between atoms: _457  and  _459
REMARK  187  A    between atoms: _459  and  _460
REMARK  188  A    between atoms: _459  and  _462
REMARK  189  A    between atoms: _462  and  _463
REMARK  190  A    between atoms: _466  and  _468
REMARK  191  A    between atoms: _468  and  _469
REMARK  192  A    between atoms: _468  and  _471
REMARK  193  A    between atoms: _474  and  _476
REMARK  194  A    between atoms: _476  and  _477
REMARK  195  A    between atoms: _476  and  _479
REMARK  196  A    between atoms: _479  and  _480
REMARK  197  A    between atoms: _483  and  _485
REMARK  198  A    between atoms: _485  and  _486
REMARK  199  A    between atoms: _485  and  _488
REMARK  200  A    between atoms: _488  and  _489
REMARK  201  A    between atoms: _493  and  _494
REMARK  202  A    between atoms: _499  and  _501
REMARK  203  A    between atoms: _501  and  _502
REMARK  204  A    between atoms: _501  and  _504
REMARK  205  A    between atoms: _507  and  _509
REMARK  206  A    between atoms: _509  and  _510
REMARK  207  A    between atoms: _509  and  _512
REMARK  208  A    between atoms: _512  and  _513
REMARK  209  A    between atoms: _518  and  _520
REMARK  210  A    between atoms: _520  and  _521
REMARK  211  A    between atoms: _520  and  _523
REMARK  212  A    between atoms: _523  and  _524
REMARK  213  A    between atoms: _527  and  _529
REMARK  214  A    between atoms: _529  and  _530
REMARK  215  A    between atoms: _529  and  _532
REMARK  216  A    between atoms: _532  and  _533
REMARK  217  A    between atoms: _536  and  _538
REMARK  218  A    between atoms: _538  and  _539
REMARK  219  A    between atoms: _541  and  _543
REMARK  220  A    between atoms: _543  and  _544
REMARK  221  A    between atoms: _543  and  _546
REMARK  222  A    between atoms: _546  and  _547
REMARK  223  A    between atoms: _547  and  _548
REMARK  224  A    between atoms: _548  and  _549
REMARK                            x       y       z     vdW  Elec       q    Type
REMARK                         _______ _______ _______ _____ _____    ______ ____
ROOT
ATOM      1  O   HOH     1      -7.190  21.928   6.866  0.00  0.00    +0.000 OA
ENDROOT
TORSDOF 0
REMARK  Name = ../refined-set-2016/2o4l/2o4l_pocket.pdb
REMARK  224 active torsions:
REMARK  status: ('A' for Active; 'I' for Inactive)
REMARK    1  A    between atoms: _1  and  _3
REMARK    2  A    between atoms: _3  and  _4
REMARK    3  A    between atoms: _3  and  _6
REMARK    4  A    between atoms: _6  and  _7
REMARK    5  A    between atoms: _7  and  _8
REMARK    6  A    between atoms: _8  and  _9
REMARK    7  A    between atoms: _18  and  _20
REMARK    8  A    between atoms: _20  and  _21
REMARK    9  A    between atoms: _20  and  _23
REMARK   10  A    between atoms: _23  and  _24
REMARK   11  A    between atoms: _27  and  _29
REMARK   12  A    between atoms: _29  and  _30
REMARK   13  A    between atoms: _29  and  _32
REMARK   14  A    between atoms: _32  and  _33
REMARK   15  A    between atoms: _36  and  _38
REMARK   16  A    between atoms: _38  and  _39
REMARK   17  A    between atoms: _38  and  _41
REMARK   18  A    between atoms: _41  and  _42
REMARK   19  A    between atoms: _45  and  _47
REMARK   20  A    between atoms: _47  and  _48
REMARK   21  A    between atoms: _47  and  _50
REMARK   22  A    between atoms: _50  and  _51
REMARK   23  A    between atoms: _54  and  _56
REMARK   24  A    between atoms: _56  and  _57
REMARK   25  A    between atoms: _56  and  _59
REMARK   26  A    between atoms: _59  and  _60
REMARK   27  A    between atoms: _63  and  _65
REMARK   28  A    between atoms: _65  and  _66
REMARK   29  A    between atoms: _68  and  _70
REMARK   30  A    between atoms: _70  and  _71
REMARK   31  A    between atoms: _74  and  _76
REMARK   32  A    between atoms: _76  and  _77
REMARK   33  A    between atoms: _76  and  _79
REMARK   34  A    between atoms: _79  and  _80
REMARK   35  A    between atoms: _83  and  _85
REMARK   36  A    between atoms: _85  and  _86
REMARK   37  A    between atoms: _85  and  _88
REMARK   38  A    between atoms: _88  and  _89
REMARK   39  A    between atoms: _92  and  _94
REMARK   40  A    between atoms: _94  and  _95
REMARK   41  A    between atoms: _94  and  _97
REMARK   42  A    between atoms: _97  and  _98
REMARK   43  A    between atoms: _101  and  _103
REMARK   44  A    between atoms: _103  and  _104
REMARK   45  A    between atoms: _103  and  _106
REMARK   46  A    between atoms: _109  and  _111
REMARK   47  A    between atoms: _111  and  _112
REMARK   48  A    between atoms: _111  and  _114
REMARK   49  A    between atoms: _114  and  _115
REMARK   50  A    between atoms: _115  and  _116
REMARK   51  A    between atoms: _116  and  _117
REMARK   52  A    between atoms: _117  and  _118
REMARK   53  A    between atoms: _122  and  _124
REMARK   54  A    between atoms: _124  and  _125
REMARK   55  A    between atoms: _124  and  _127
REMARK   56  A    between atoms: _127  and  _128
REMARK   57  A    between atoms: _128  and  _129
REMARK   58  A    between atoms: _131  and  _133
REMARK   59  A    between atoms: _133  and  _134
REMARK   60  A    between atoms: _133  and  _136
REMARK   61  A    between atoms: _136  and  _137
REMARK   62  A    between atoms: _140  and  _142
REMARK   63  A    between atoms: _142  and  _143
REMARK   64  A    between atoms: _145  and  _147
REMARK   65  A    between atoms: _147  and  _148
REMARK   66  A    between atoms: _150  and  _152
REMARK   67  A    between atoms: _152  and  _153
REMARK   68  A    between atoms: _152  and  _155
REMARK   69  A    between atoms: _158  and  _160
REMARK   70  A    between atoms: _160  and  _161
REMARK   71  A    between atoms: _163  and  _165
REMARK   72  A    between atoms: _165  and  _166
REMARK   73  A    between atoms: _168  and  _170
REMARK   74  A    between atoms: _170  and  _171
REMARK   75  A    between atoms: _170  and  _173
REMARK   76  A    between atoms: _173  and  _174
REMARK   77  A    between atoms: _180  and  _182
REMARK   78  A    between atoms: _182  and  _183
REMARK   79  A    between atoms: _182  and  _185
REMARK   80  A    between atoms: _185  and  _186
REMARK   81  A    between atoms: _189  and  _191
REMARK   82  A    between atoms: _191  and  _192
REMARK   83  A    between atoms: _191  and  _194
REMARK   84  A    between atoms: _194  and  _195
REMARK   85  A    between atoms: _198  and  _200
REMARK   86  A    between atoms: _200  and  _201
REMARK   87  A    between atoms: _200  and  _203
REMARK   88  A    between atoms: _203  and  _204
REMARK   89  A    between atoms: _208  and  _209
REMARK   90  A    between atoms: _214  and  _216
REMARK   91  A    between atoms: _216  and  _217
REMARK   92  A    between atoms: _216  and  _219
REMARK   93  A    between atoms: _222  and  _224
REMARK   94  A    between atoms: _224  and  _225
REMARK   95  A    between atoms: _224  and  _227
REMARK   96  A    between atoms: _227  and  _228
REMARK   97  A    between atoms: _233  and  _235
REMARK   98  A    between atoms: _235  and  _236
REMARK   99  A    between atoms: _235  and  _238
REMARK  100  A    between atoms: _238  and  _239
REMARK  101  A    between atoms: _242  and  _244
REMARK  102  A    between atoms: _244  and  _245
REMARK  103  A    between atoms: _244  and  _247
REMARK  104  A    between atoms: _247  and  _248
REMARK  105  A    between atoms: _251  and  _253
REMARK  106  A    between atoms: _253  and  _254
REMARK  107  A    between atoms: _256  and  _258
REMARK  108  A    between atoms: _258  and  _259
REMARK  109  A    between atoms: _258  and  _261
REMARK  110  A    between atoms: _261  and  _262
REMARK  111  A    between atoms: _262  and  _263
REMARK  112  A    between atoms: _263  and  _264
REMARK  113  A    between atoms: _273  and  _275
REMARK  114  A    between atoms: _275  and  _276
REMARK  115  A    between atoms: _275  and  _278
REMARK  116  A    between atoms: _278  and  _279
REMARK  117  A    between atoms: _284  and  _286
REMARK  118  A    between atoms: _286  and  _287
REMARK  119  A    between atoms: _286  and  _289
REMARK  120  A    between atoms: _289  and  _290
REMARK  121  A    between atoms: _290  and  _291
REMARK  122  A    between atoms: _291  and  _292
REMARK  123  A    between atoms: _302  and  _303
REMARK  124  A    between atoms: _308  and  _310
REMARK  125  A    between atoms: _310  and  _311
REMARK  126  A    between atoms: _310  and  _313
REMARK  127  A    between atoms: _313  and  _314
REMARK  128  A    between atoms: _317  and  _319
REMARK  129  A    between atoms: _319  and  _320
REMARK  130  A    between atoms: _319  and  _322
REMARK  131  A    between atoms: _322  and  _323
REMARK  132  A    between atoms: _326  and  _328
REMARK  133  A    between atoms: _328  and  _329
REMARK  134  A    between atoms: _328  and  _331
REMARK  135  A    between atoms: _331  and  _332
REMARK  136  A    between atoms: _335  and  _337
REMARK  137  A    between atoms: _337  and  _338
REMARK  138  A    between atoms: _337  and  _340
REMARK  139  A    between atoms: _340  and  _341
REMARK  140  A    between atoms: _344  and  _346
REMARK  141  A    between atoms: _346  and  _347
REMARK  142  A    between atoms: _346  and  _349
REMARK  143  A    between atoms: _349  and  _350
REMARK  144  A    between atoms: _353  and  _355
REMARK  145  A    between atoms: _355  and  _356
REMARK  146  A    between atoms: _358  and  _360
REMARK  147  A    between atoms: _360  and  _361
REMARK  148  A    between atoms: _364  and  _366
REMARK  149  A    between atoms: _366  and  _367
REMARK  150  A    between atoms: _366  and  _369
REMARK  151  A    between atoms: _369  and  _370
REMARK  152  A    between atoms: _373  and  _375
REMARK  153  A    between atoms: _375  and  _376
REMARK  154  A    between atoms: _375  and  _378
REMARK  155  A    between atoms: _378  and  _379
REMARK  156  A    between atoms: _382  and  _384
REMARK  157  A    between atoms: _384  and  _385
REMARK  158  A    between atoms: _384  and  _387
REMARK  159  A    between atoms: _387  and  _388
REMARK  160  A    between atoms: _391  and  _393
REMARK  161  A    between atoms: _393  and  _394
REMARK  162  A    between atoms: _393  and  _396
REMARK  163  A    between atoms: _399  and  _401
REMARK  164  A    between atoms: _401  and  _402
REMARK  165  A    between atoms: _401  and  _404
REMARK  166  A    between atoms: _404  and  _405
REMARK  167  A    between atoms: _408  and  _410
REMARK  168  A    between atoms: _410  and  _411
REMARK  169  A    between atoms: _410  and  _413
REMARK  170  A    between atoms: _413  and  _414
REMARK  171  A    between atoms: _417  and  _419
REMARK  172  A    between atoms: _419  and  _420
REMARK  173  A    between atoms: _422  and  _424
REMARK  174  A    between atoms: _424  and  _425
REMARK  175  A    between atoms: _427  and  _429
REMARK  176  A    between atoms: _429  and  _430
REMARK  177  A    between atoms: _429  and  _432
REMARK  178  A    between atoms: _435  and  _437
REMARK  179  A    between atoms: _437  and  _438
REMARK  180  A    between atoms: _440  and  _442
REMARK  181  A    between atoms: _442  and  _443
REMARK  182  A    between atoms: _445  and  _447
REMARK  183  A    between atoms: _447  and  _448
REMARK  184  A    between atoms: _447  and  _450
REMARK  185  A    between atoms: _450  and  _451
REMARK  186  A    between atoms: _457  and  _459
REMARK  187  A    between atoms: _459  and  _460
REMARK  188  A    between atoms: _459  and  _462
REMARK  189  A    between atoms: _462  and  _463
REMARK  190  A    between atoms: _466  and  _468
REMARK  191  A    between atoms: _468  and  _469
REMARK  192  A    between atoms: _468  and  _471
REMARK  193  A    between atoms: _474  and  _476
REMARK  194  A    between atoms: _476  and  _477
REMARK  195  A    between atoms: _476  and  _479
REMARK  196  A    between atoms: _479  and  _480
REMARK  197  A    between atoms: _483  and  _485
REMARK  198  A    between atoms: _485  and  _486
REMARK  199  A    between atoms: _485  and  _488
REMARK  200  A    between atoms: _488  and  _489
REMARK  201  A    between atoms: _493  and  _494
REMARK  202  A    between atoms: _499  and  _501
REMARK  203  A    between atoms: _501  and  _502
REMARK  204  A    between atoms: _501  and  _504
REMARK  205  A    between atoms: _507  and  _509
REMARK  206  A    between atoms: _509  and  _510
REMARK  207  A    between atoms: _509  and  _512
REMARK  208  A    between atoms: _512  and  _513
REMARK  209  A    between atoms: _518  and  _520
REMARK  210  A    between atoms: _520  and  _521
REMARK  211  A    between atoms: _520  and  _523
REMARK  212  A    between atoms: _523  and  _524
REMARK  213  A    between atoms: _527  and  _529
REMARK  214  A    between atoms: _529  and  _530
REMARK  215  A    between atoms: _529  and  _532
REMARK  216  A    between atoms: _532  and  _533
REMARK  217  A    between atoms: _536  and  _538
REMARK  218  A    between atoms: _538  and  _539
REMARK  219  A    between atoms: _541  and  _543
REMARK  220  A    between atoms: _543  and  _544
REMARK  221  A    between atoms: _543  and  _546
REMARK  222  A    between atoms: _546  and  _547
REMARK  223  A    between atoms: _547  and  _548
REMARK  224  A    between atoms: _548  and  _549
REMARK                            x       y       z     vdW  Elec       q    Type
REMARK                         _______ _______ _______ _____ _____    ______ ____
ROOT
ATOM      1  O   HOH     1      -7.668  23.717   8.962  0.00  0.00    +0.000 OA
ENDROOT
TORSDOF 0
REMARK  Name = ../refined-set-2016/2o4l/2o4l_pocket.pdb
REMARK  224 active torsions:
REMARK  status: ('A' for Active; 'I' for Inactive)
REMARK    1  A    between atoms: _1  and  _3
REMARK    2  A    between atoms: _3  and  _4
REMARK    3  A    between atoms: _3  and  _6
REMARK    4  A    between atoms: _6  and  _7
REMARK    5  A    between atoms: _7  and  _8
REMARK    6  A    between atoms: _8  and  _9
REMARK    7  A    between atoms: _18  and  _20
REMARK    8  A    between atoms: _20  and  _21
REMARK    9  A    between atoms: _20  and  _23
REMARK   10  A    between atoms: _23  and  _24
REMARK   11  A    between atoms: _27  and  _29
REMARK   12  A    between atoms: _29  and  _30
REMARK   13  A    between atoms: _29  and  _32
REMARK   14  A    between atoms: _32  and  _33
REMARK   15  A    between atoms: _36  and  _38
REMARK   16  A    between atoms: _38  and  _39
REMARK   17  A    between atoms: _38  and  _41
REMARK   18  A    between atoms: _41  and  _42
REMARK   19  A    between atoms: _45  and  _47
REMARK   20  A    between atoms: _47  and  _48
REMARK   21  A    between atoms: _47  and  _50
REMARK   22  A    between atoms: _50  and  _51
REMARK   23  A    between atoms: _54  and  _56
REMARK   24  A    between atoms: _56  and  _57
REMARK   25  A    between atoms: _56  and  _59
REMARK   26  A    between atoms: _59  and  _60
REMARK   27  A    between atoms: _63  and  _65
REMARK   28  A    between atoms: _65  and  _66
REMARK   29  A    between atoms: _68  and  _70
REMARK   30  A    between atoms: _70  and  _71
REMARK   31  A    between atoms: _74  and  _76
REMARK   32  A    between atoms: _76  and  _77
REMARK   33  A    between atoms: _76  and  _79
REMARK   34  A    between atoms: _79  and  _80
REMARK   35  A    between atoms: _83  and  _85
REMARK   36  A    between atoms: _85  and  _86
REMARK   37  A    between atoms: _85  and  _88
REMARK   38  A    between atoms: _88  and  _89
REMARK   39  A    between atoms: _92  and  _94
REMARK   40  A    between atoms: _94  and  _95
REMARK   41  A    between atoms: _94  and  _97
REMARK   42  A    between atoms: _97  and  _98
REMARK   43  A    between atoms: _101  and  _103
REMARK   44  A    between atoms: _103  and  _104
REMARK   45  A    between atoms: _103  and  _106
REMARK   46  A    between atoms: _109  and  _111
REMARK   47  A    between atoms: _111  and  _112
REMARK   48  A    between atoms: _111  and  _114
REMARK   49  A    between atoms: _114  and  _115
REMARK   50  A    between atoms: _115  and  _116
REMARK   51  A    between atoms: _116  and  _117
REMARK   52  A    between atoms: _117  and  _118
REMARK   53  A    between atoms: _122  and  _124
REMARK   54  A    between atoms: _124  and  _125
REMARK   55  A    between atoms: _124  and  _127
REMARK   56  A    between atoms: _127  and  _128
REMARK   57  A    between atoms: _128  and  _129
REMARK   58  A    between atoms: _131  and  _133
REMARK   59  A    between atoms: _133  and  _134
REMARK   60  A    between atoms: _133  and  _136
REMARK   61  A    between atoms: _136  and  _137
REMARK   62  A    between atoms: _140  and  _142
REMARK   63  A    between atoms: _142  and  _143
REMARK   64  A    between atoms: _145  and  _147
REMARK   65  A    between atoms: _147  and  _148
REMARK   66  A    between atoms: _150  and  _152
REMARK   67  A    between atoms: _152  and  _153
REMARK   68  A    between atoms: _152  and  _155
REMARK   69  A    between atoms: _158  and  _160
REMARK   70  A    between atoms: _160  and  _161
REMARK   71  A    between atoms: _163  and  _165
REMARK   72  A    between atoms: _165  and  _166
REMARK   73  A    between atoms: _168  and  _170
REMARK   74  A    between atoms: _170  and  _171
REMARK   75  A    between atoms: _170  and  _173
REMARK   76  A    between atoms: _173  and  _174
REMARK   77  A    between atoms: _180  and  _182
REMARK   78  A    between atoms: _182  and  _183
REMARK   79  A    between atoms: _182  and  _185
REMARK   80  A    between atoms: _185  and  _186
REMARK   81  A    between atoms: _189  and  _191
REMARK   82  A    between atoms: _191  and  _192
REMARK   83  A    between atoms: _191  and  _194
REMARK   84  A    between atoms: _194  and  _195
REMARK   85  A    between atoms: _198  and  _200
REMARK   86  A    between atoms: _200  and  _201
REMARK   87  A    between atoms: _200  and  _203
REMARK   88  A    between atoms: _203  and  _204
REMARK   89  A    between atoms: _208  and  _209
REMARK   90  A    between atoms: _214  and  _216
REMARK   91  A    between atoms: _216  and  _217
REMARK   92  A    between atoms: _216  and  _219
REMARK   93  A    between atoms: _222  and  _224
REMARK   94  A    between atoms: _224  and  _225
REMARK   95  A    between atoms: _224  and  _227
REMARK   96  A    between atoms: _227  and  _228
REMARK   97  A    between atoms: _233  and  _235
REMARK   98  A    between atoms: _235  and  _236
REMARK   99  A    between atoms: _235  and  _238
REMARK  100  A    between atoms: _238  and  _239
REMARK  101  A    between atoms: _242  and  _244
REMARK  102  A    between atoms: _244  and  _245
REMARK  103  A    between atoms: _244  and  _247
REMARK  104  A    between atoms: _247  and  _248
REMARK  105  A    between atoms: _251  and  _253
REMARK  106  A    between atoms: _253  and  _254
REMARK  107  A    between atoms: _256  and  _258
REMARK  108  A    between atoms: _258  and  _259
REMARK  109  A    between atoms: _258  and  _261
REMARK  110  A    between atoms: _261  and  _262
REMARK  111  A    between atoms: _262  and  _263
REMARK  112  A    between atoms: _263  and  _264
REMARK  113  A    between atoms: _273  and  _275
REMARK  114  A    between atoms: _275  and  _276
REMARK  115  A    between atoms: _275  and  _278
REMARK  116  A    between atoms: _278  and  _279
REMARK  117  A    between atoms: _284  and  _286
REMARK  118  A    between atoms: _286  and  _287
REMARK  119  A    between atoms: _286  and  _289
REMARK  120  A    between atoms: _289  and  _290
REMARK  121  A    between atoms: _290  and  _291
REMARK  122  A    between atoms: _291  and  _292
REMARK  123  A    between atoms: _302  and  _303
REMARK  124  A    between atoms: _308  and  _310
REMARK  125  A    between atoms: _310  and  _311
REMARK  126  A    between atoms: _310  and  _313
REMARK  127  A    between atoms: _313  and  _314
REMARK  128  A    between atoms: _317  and  _319
REMARK  129  A    between atoms: _319  and  _320
REMARK  130  A    between atoms: _319  and  _322
REMARK  131  A    between atoms: _322  and  _323
REMARK  132  A    between atoms: _326  and  _328
REMARK  133  A    between atoms: _328  and  _329
REMARK  134  A    between atoms: _328  and  _331
REMARK  135  A    between atoms: _331  and  _332
REMARK  136  A    between atoms: _335  and  _337
REMARK  137  A    between atoms: _337  and  _338
REMARK  138  A    between atoms: _337  and  _340
REMARK  139  A    between atoms: _340  and  _341
REMARK  140  A    between atoms: _344  and  _346
REMARK  141  A    between atoms: _346  and  _347
REMARK  142  A    between atoms: _346  and  _349
REMARK  143  A    between atoms: _349  and  _350
REMARK  144  A    between atoms: _353  and  _355
REMARK  145  A    between atoms: _355  and  _356
REMARK  146  A    between atoms: _358  and  _360
REMARK  147  A    between atoms: _360  and  _361
REMARK  148  A    between atoms: _364  and  _366
REMARK  149  A    between atoms: _366  and  _367
REMARK  150  A    between atoms: _366  and  _369
REMARK  151  A    between atoms: _369  and  _370
REMARK  152  A    between atoms: _373  and  _375
REMARK  153  A    between atoms: _375  and  _376
REMARK  154  A    between atoms: _375  and  _378
REMARK  155  A    between atoms: _378  and  _379
REMARK  156  A    between atoms: _382  and  _384
REMARK  157  A    between atoms: _384  and  _385
REMARK  158  A    between atoms: _384  and  _387
REMARK  159  A    between atoms: _387  and  _388
REMARK  160  A    between atoms: _391  and  _393
REMARK  161  A    between atoms: _393  and  _394
REMARK  162  A    between atoms: _393  and  _396
REMARK  163  A    between atoms: _399  and  _401
REMARK  164  A    between atoms: _401  and  _402
REMARK  165  A    between atoms: _401  and  _404
REMARK  166  A    between atoms: _404  and  _405
REMARK  167  A    between atoms: _408  and  _410
REMARK  168  A    between atoms: _410  and  _411
REMARK  169  A    between atoms: _410  and  _413
REMARK  170  A    between atoms: _413  and  _414
REMARK  171  A    between atoms: _417  and  _419
REMARK  172  A    between atoms: _419  and  _420
REMARK  173  A    between atoms: _422  and  _424
REMARK  174  A    between atoms: _424  and  _425
REMARK  175  A    between atoms: _427  and  _429
REMARK  176  A    between atoms: _429  and  _430
REMARK  177  A    between atoms: _429  and  _432
REMARK  178  A    between atoms: _435  and  _437
REMARK  179  A    between atoms: _437  and  _438
REMARK  180  A    between atoms: _440  and  _442
REMARK  181  A    between atoms: _442  and  _443
REMARK  182  A    between atoms: _445  and  _447
REMARK  183  A    between atoms: _447  and  _448
REMARK  184  A    between atoms: _447  and  _450
REMARK  185  A    between atoms: _450  and  _451
REMARK  186  A    between atoms: _457  and  _459
REMARK  187  A    between atoms: _459  and  _460
REMARK  188  A    between atoms: _459  and  _462
REMARK  189  A    between atoms: _462  and  _463
REMARK  190  A    between atoms: _466  and  _468
REMARK  191  A    between atoms: _468  and  _469
REMARK  192  A    between atoms: _468  and  _471
REMARK  193  A    between atoms: _474  and  _476
REMARK  194  A    between atoms: _476  and  _477
REMARK  195  A    between atoms: _476  and  _479
REMARK  196  A    between atoms: _479  and  _480
REMARK  197  A    between atoms: _483  and  _485
REMARK  198  A    between atoms: _485  and  _486
REMARK  199  A    between atoms: _485  and  _488
REMARK  200  A    between atoms: _488  and  _489
REMARK  201  A    between atoms: _493  and  _494
REMARK  202  A    between atoms: _499  and  _501
REMARK  203  A    between atoms: _501  and  _502
REMARK  204  A    between atoms: _501  and  _504
REMARK  205  A    between atoms: _507  and  _509
REMARK  206  A    between atoms: _509  and  _510
REMARK  207  A    between atoms: _509  and  _512
REMARK  208  A    between atoms: _512  and  _513
REMARK  209  A    between atoms: _518  and  _520
REMARK  210  A    between atoms: _520  and  _521
REMARK  211  A    between atoms: _520  and  _523
REMARK  212  A    between atoms: _523  and  _524
REMARK  213  A    between atoms: _527  and  _529
REMARK  214  A    between atoms: _529  and  _530
REMARK  215  A    between atoms: _529  and  _532
REMARK  216  A    between atoms: _532  and  _533
REMARK  217  A    between atoms: _536  and  _538
REMARK  218  A    between atoms: _538  and  _539
REMARK  219  A    between atoms: _541  and  _543
REMARK  220  A    between atoms: _543  and  _544
REMARK  221  A    between atoms: _543  and  _546
REMARK  222  A    between atoms: _546  and  _547
REMARK  223  A    between atoms: _547  and  _548
REMARK  224  A    between atoms: _548  and  _549
REMARK                            x       y       z     vdW  Elec       q    Type
REMARK                         _______ _______ _______ _____ _____    ______ ____
ROOT
ATOM      1  O   HOH     1     -28.982  15.934  16.323  0.00  0.00    +0.000 OA
ENDROOT
TORSDOF 0
REMARK  Name = ../refined-set-2016/2o4l/2o4l_pocket.pdb
REMARK  224 active torsions:
REMARK  status: ('A' for Active; 'I' for Inactive)
REMARK    1  A    between atoms: _1  and  _3
REMARK    2  A    between atoms: _3  and  _4
REMARK    3  A    between atoms: _3  and  _6
REMARK    4  A    between atoms: _6  and  _7
REMARK    5  A    between atoms: _7  and  _8
REMARK    6  A    between atoms: _8  and  _9
REMARK    7  A    between atoms: _18  and  _20
REMARK    8  A    between atoms: _20  and  _21
REMARK    9  A    between atoms: _20  and  _23
REMARK   10  A    between atoms: _23  and  _24
REMARK   11  A    between atoms: _27  and  _29
REMARK   12  A    between atoms: _29  and  _30
REMARK   13  A    between atoms: _29  and  _32
REMARK   14  A    between atoms: _32  and  _33
REMARK   15  A    between atoms: _36  and  _38
REMARK   16  A    between atoms: _38  and  _39
REMARK   17  A    between atoms: _38  and  _41
REMARK   18  A    between atoms: _41  and  _42
REMARK   19  A    between atoms: _45  and  _47
REMARK   20  A    between atoms: _47  and  _48
REMARK   21  A    between atoms: _47  and  _50
REMARK   22  A    between atoms: _50  and  _51
REMARK   23  A    between atoms: _54  and  _56
REMARK   24  A    between atoms: _56  and  _57
REMARK   25  A    between atoms: _56  and  _59
REMARK   26  A    between atoms: _59  and  _60
REMARK   27  A    between atoms: _63  and  _65
REMARK   28  A    between atoms: _65  and  _66
REMARK   29  A    between atoms: _68  and  _70
REMARK   30  A    between atoms: _70  and  _71
REMARK   31  A    between atoms: _74  and  _76
REMARK   32  A    between atoms: _76  and  _77
REMARK   33  A    between atoms: _76  and  _79
REMARK   34  A    between atoms: _79  and  _80
REMARK   35  A    between atoms: _83  and  _85
REMARK   36  A    between atoms: _85  and  _86
REMARK   37  A    between atoms: _85  and  _88
REMARK   38  A    between atoms: _88  and  _89
REMARK   39  A    between atoms: _92  and  _94
REMARK   40  A    between atoms: _94  and  _95
REMARK   41  A    between atoms: _94  and  _97
REMARK   42  A    between atoms: _97  and  _98
REMARK   43  A    between atoms: _101  and  _103
REMARK   44  A    between atoms: _103  and  _104
REMARK   45  A    between atoms: _103  and  _106
REMARK   46  A    between atoms: _109  and  _111
REMARK   47  A    between atoms: _111  and  _112
REMARK   48  A    between atoms: _111  and  _114
REMARK   49  A    between atoms: _114  and  _115
REMARK   50  A    between atoms: _115  and  _116
REMARK   51  A    between atoms: _116  and  _117
REMARK   52  A    between atoms: _117  and  _118
REMARK   53  A    between atoms: _122  and  _124
REMARK   54  A    between atoms: _124  and  _125
REMARK   55  A    between atoms: _124  and  _127
REMARK   56  A    between atoms: _127  and  _128
REMARK   57  A    between atoms: _128  and  _129
REMARK   58  A    between atoms: _131  and  _133
REMARK   59  A    between atoms: _133  and  _134
REMARK   60  A    between atoms: _133  and  _136
REMARK   61  A    between atoms: _136  and  _137
REMARK   62  A    between atoms: _140  and  _142
REMARK   63  A    between atoms: _142  and  _143
REMARK   64  A    between atoms: _145  and  _147
REMARK   65  A    between atoms: _147  and  _148
REMARK   66  A    between atoms: _150  and  _152
REMARK   67  A    between atoms: _152  and  _153
REMARK   68  A    between atoms: _152  and  _155
REMARK   69  A    between atoms: _158  and  _160
REMARK   70  A    between atoms: _160  and  _161
REMARK   71  A    between atoms: _163  and  _165
REMARK   72  A    between atoms: _165  and  _166
REMARK   73  A    between atoms: _168  and  _170
REMARK   74  A    between atoms: _170  and  _171
REMARK   75  A    between atoms: _170  and  _173
REMARK   76  A    between atoms: _173  and  _174
REMARK   77  A    between atoms: _180  and  _182
REMARK   78  A    between atoms: _182  and  _183
REMARK   79  A    between atoms: _182  and  _185
REMARK   80  A    between atoms: _185  and  _186
REMARK   81  A    between atoms: _189  and  _191
REMARK   82  A    between atoms: _191  and  _192
REMARK   83  A    between atoms: _191  and  _194
REMARK   84  A    between atoms: _194  and  _195
REMARK   85  A    between atoms: _198  and  _200
REMARK   86  A    between atoms: _200  and  _201
REMARK   87  A    between atoms: _200  and  _203
REMARK   88  A    between atoms: _203  and  _204
REMARK   89  A    between atoms: _208  and  _209
REMARK   90  A    between atoms: _214  and  _216
REMARK   91  A    between atoms: _216  and  _217
REMARK   92  A    between atoms: _216  and  _219
REMARK   93  A    between atoms: _222  and  _224
REMARK   94  A    between atoms: _224  and  _225
REMARK   95  A    between atoms: _224  and  _227
REMARK   96  A    between atoms: _227  and  _228
REMARK   97  A    between atoms: _233  and  _235
REMARK   98  A    between atoms: _235  and  _236
REMARK   99  A    between atoms: _235  and  _238
REMARK  100  A    between atoms: _238  and  _239
REMARK  101  A    between atoms: _242  and  _244
REMARK  102  A    between atoms: _244  and  _245
REMARK  103  A    between atoms: _244  and  _247
REMARK  104  A    between atoms: _247  and  _248
REMARK  105  A    between atoms: _251  and  _253
REMARK  106  A    between atoms: _253  and  _254
REMARK  107  A    between atoms: _256  and  _258
REMARK  108  A    between atoms: _258  and  _259
REMARK  109  A    between atoms: _258  and  _261
REMARK  110  A    between atoms: _261  and  _262
REMARK  111  A    between atoms: _262  and  _263
REMARK  112  A    between atoms: _263  and  _264
REMARK  113  A    between atoms: _273  and  _275
REMARK  114  A    between atoms: _275  and  _276
REMARK  115  A    between atoms: _275  and  _278
REMARK  116  A    between atoms: _278  and  _279
REMARK  117  A    between atoms: _284  and  _286
REMARK  118  A    between atoms: _286  and  _287
REMARK  119  A    between atoms: _286  and  _289
REMARK  120  A    between atoms: _289  and  _290
REMARK  121  A    between atoms: _290  and  _291
REMARK  122  A    between atoms: _291  and  _292
REMARK  123  A    between atoms: _302  and  _303
REMARK  124  A    between atoms: _308  and  _310
REMARK  125  A    between atoms: _310  and  _311
REMARK  126  A    between atoms: _310  and  _313
REMARK  127  A    between atoms: _313  and  _314
REMARK  128  A    between atoms: _317  and  _319
REMARK  129  A    between atoms: _319  and  _320
REMARK  130  A    between atoms: _319  and  _322
REMARK  131  A    between atoms: _322  and  _323
REMARK  132  A    between atoms: _326  and  _328
REMARK  133  A    between atoms: _328  and  _329
REMARK  134  A    between atoms: _328  and  _331
REMARK  135  A    between atoms: _331  and  _332
REMARK  136  A    between atoms: _335  and  _337
REMARK  137  A    between atoms: _337  and  _338
REMARK  138  A    between atoms: _337  and  _340
REMARK  139  A    between atoms: _340  and  _341
REMARK  140  A    between atoms: _344  and  _346
REMARK  141  A    between atoms: _346  and  _347
REMARK  142  A    between atoms: _346  and  _349
REMARK  143  A    between atoms: _349  and  _350
REMARK  144  A    between atoms: _353  and  _355
REMARK  145  A    between atoms: _355  and  _356
REMARK  146  A    between atoms: _358  and  _360
REMARK  147  A    between atoms: _360  and  _361
REMARK  148  A    between atoms: _364  and  _366
REMARK  149  A    between atoms: _366  and  _367
REMARK  150  A    between atoms: _366  and  _369
REMARK  151  A    between atoms: _369  and  _370
REMARK  152  A    between atoms: _373  and  _375
REMARK  153  A    between atoms: _375  and  _376
REMARK  154  A    between atoms: _375  and  _378
REMARK  155  A    between atoms: _378  and  _379
REMARK  156  A    between atoms: _382  and  _384
REMARK  157  A    between atoms: _384  and  _385
REMARK  158  A    between atoms: _384  and  _387
REMARK  159  A    between atoms: _387  and  _388
REMARK  160  A    between atoms: _391  and  _393
REMARK  161  A    between atoms: _393  and  _394
REMARK  162  A    between atoms: _393  and  _396
REMARK  163  A    between atoms: _399  and  _401
REMARK  164  A    between atoms: _401  and  _402
REMARK  165  A    between atoms: _401  and  _404
REMARK  166  A    between atoms: _404  and  _405
REMARK  167  A    between atoms: _408  and  _410
REMARK  168  A    between atoms: _410  and  _411
REMARK  169  A    between atoms: _410  and  _413
REMARK  170  A    between atoms: _413  and  _414
REMARK  171  A    between atoms: _417  and  _419
REMARK  172  A    between atoms: _419  and  _420
REMARK  173  A    between atoms: _422  and  _424
REMARK  174  A    between atoms: _424  and  _425
REMARK  175  A    between atoms: _427  and  _429
REMARK  176  A    between atoms: _429  and  _430
REMARK  177  A    between atoms: _429  and  _432
REMARK  178  A    between atoms: _435  and  _437
REMARK  179  A    between atoms: _437  and  _438
REMARK  180  A    between atoms: _440  and  _442
REMARK  181  A    between atoms: _442  and  _443
REMARK  182  A    between atoms: _445  and  _447
REMARK  183  A    between atoms: _447  and  _448
REMARK  184  A    between atoms: _447  and  _450
REMARK  185  A    between atoms: _450  and  _451
REMARK  186  A    between atoms: _457  and  _459
REMARK  187  A    between atoms: _459  and  _460
REMARK  188  A    between atoms: _459  and  _462
REMARK  189  A    between atoms: _462  and  _463
REMARK  190  A    between atoms: _466  and  _468
REMARK  191  A    between atoms: _468  and  _469
REMARK  192  A    between atoms: _468  and  _471
REMARK  193  A    between atoms: _474  and  _476
REMARK  194  A    between atoms: _476  and  _477
REMARK  195  A    between atoms: _476  and  _479
REMARK  196  A    between atoms: _479  and  _480
REMARK  197  A    between atoms: _483  and  _485
REMARK  198  A    between atoms: _485  and  _486
REMARK  199  A    between atoms: _485  and  _488
REMARK  200  A    between atoms: _488  and  _489
REMARK  201  A    between atoms: _493  and  _494
REMARK  202  A    between atoms: _499  and  _501
REMARK  203  A    between atoms: _501  and  _502
REMARK  204  A    between atoms: _501  and  _504
REMARK  205  A    between atoms: _507  and  _509
REMARK  206  A    between atoms: _509  and  _510
REMARK  207  A    between atoms: _509  and  _512
REMARK  208  A    between atoms: _512  and  _513
REMARK  209  A    between atoms: _518  and  _520
REMARK  210  A    between atoms: _520  and  _521
REMARK  211  A    between atoms: _520  and  _523
REMARK  212  A    between atoms: _523  and  _524
REMARK  213  A    between atoms: _527  and  _529
REMARK  214  A    between atoms: _529  and  _530
REMARK  215  A    between atoms: _529  and  _532
REMARK  216  A    between atoms: _532  and  _533
REMARK  217  A    between atoms: _536  and  _538
REMARK  218  A    between atoms: _538  and  _539
REMARK  219  A    between atoms: _541  and  _543
REMARK  220  A    between atoms: _543  and  _544
REMARK  221  A    between atoms: _543  and  _546
REMARK  222  A    between atoms: _546  and  _547
REMARK  223  A    between atoms: _547  and  _548
REMARK  224  A    between atoms: _548  and  _549
REMARK                            x       y       z     vdW  Elec       q    Type
REMARK                         _______ _______ _______ _____ _____    ______ ____
ROOT
ATOM      1  O   HOH     1     -27.203  14.938  18.227  0.00  0.00    +0.000 OA
ENDROOT
TORSDOF 0
REMARK  Name = ../refined-set-2016/2o4l/2o4l_pocket.pdb
REMARK  224 active torsions:
REMARK  status: ('A' for Active; 'I' for Inactive)
REMARK    1  A    between atoms: _1  and  _3
REMARK    2  A    between atoms: _3  and  _4
REMARK    3  A    between atoms: _3  and  _6
REMARK    4  A    between atoms: _6  and  _7
REMARK    5  A    between atoms: _7  and  _8
REMARK    6  A    between atoms: _8  and  _9
REMARK    7  A    between atoms: _18  and  _20
REMARK    8  A    between atoms: _20  and  _21
REMARK    9  A    between atoms: _20  and  _23
REMARK   10  A    between atoms: _23  and  _24
REMARK   11  A    between atoms: _27  and  _29
REMARK   12  A    between atoms: _29  and  _30
REMARK   13  A    between atoms: _29  and  _32
REMARK   14  A    between atoms: _32  and  _33
REMARK   15  A    between atoms: _36  and  _38
REMARK   16  A    between atoms: _38  and  _39
REMARK   17  A    between atoms: _38  and  _41
REMARK   18  A    between atoms: _41  and  _42
REMARK   19  A    between atoms: _45  and  _47
REMARK   20  A    between atoms: _47  and  _48
REMARK   21  A    between atoms: _47  and  _50
REMARK   22  A    between atoms: _50  and  _51
REMARK   23  A    between atoms: _54  and  _56
REMARK   24  A    between atoms: _56  and  _57
REMARK   25  A    between atoms: _56  and  _59
REMARK   26  A    between atoms: _59  and  _60
REMARK   27  A    between atoms: _63  and  _65
REMARK   28  A    between atoms: _65  and  _66
REMARK   29  A    between atoms: _68  and  _70
REMARK   30  A    between atoms: _70  and  _71
REMARK   31  A    between atoms: _74  and  _76
REMARK   32  A    between atoms: _76  and  _77
REMARK   33  A    between atoms: _76  and  _79
REMARK   34  A    between atoms: _79  and  _80
REMARK   35  A    between atoms: _83  and  _85
REMARK   36  A    between atoms: _85  and  _86
REMARK   37  A    between atoms: _85  and  _88
REMARK   38  A    between atoms: _88  and  _89
REMARK   39  A    between atoms: _92  and  _94
REMARK   40  A    between atoms: _94  and  _95
REMARK   41  A    between atoms: _94  and  _97
REMARK   42  A    between atoms: _97  and  _98
REMARK   43  A    between atoms: _101  and  _103
REMARK   44  A    between atoms: _103  and  _104
REMARK   45  A    between atoms: _103  and  _106
REMARK   46  A    between atoms: _109  and  _111
REMARK   47  A    between atoms: _111  and  _112
REMARK   48  A    between atoms: _111  and  _114
REMARK   49  A    between atoms: _114  and  _115
REMARK   50  A    between atoms: _115  and  _116
REMARK   51  A    between atoms: _116  and  _117
REMARK   52  A    between atoms: _117  and  _118
REMARK   53  A    between atoms: _122  and  _124
REMARK   54  A    between atoms: _124  and  _125
REMARK   55  A    between atoms: _124  and  _127
REMARK   56  A    between atoms: _127  and  _128
REMARK   57  A    between atoms: _128  and  _129
REMARK   58  A    between atoms: _131  and  _133
REMARK   59  A    between atoms: _133  and  _134
REMARK   60  A    between atoms: _133  and  _136
REMARK   61  A    between atoms: _136  and  _137
REMARK   62  A    between atoms: _140  and  _142
REMARK   63  A    between atoms: _142  and  _143
REMARK   64  A    between atoms: _145  and  _147
REMARK   65  A    between atoms: _147  and  _148
REMARK   66  A    between atoms: _150  and  _152
REMARK   67  A    between atoms: _152  and  _153
REMARK   68  A    between atoms: _152  and  _155
REMARK   69  A    between atoms: _158  and  _160
REMARK   70  A    between atoms: _160  and  _161
REMARK   71  A    between atoms: _163  and  _165
REMARK   72  A    between atoms: _165  and  _166
REMARK   73  A    between atoms: _168  and  _170
REMARK   74  A    between atoms: _170  and  _171
REMARK   75  A    between atoms: _170  and  _173
REMARK   76  A    between atoms: _173  and  _174
REMARK   77  A    between atoms: _180  and  _182
REMARK   78  A    between atoms: _182  and  _183
REMARK   79  A    between atoms: _182  and  _185
REMARK   80  A    between atoms: _185  and  _186
REMARK   81  A    between atoms: _189  and  _191
REMARK   82  A    between atoms: _191  and  _192
REMARK   83  A    between atoms: _191  and  _194
REMARK   84  A    between atoms: _194  and  _195
REMARK   85  A    between atoms: _198  and  _200
REMARK   86  A    between atoms: _200  and  _201
REMARK   87  A    between atoms: _200  and  _203
REMARK   88  A    between atoms: _203  and  _204
REMARK   89  A    between atoms: _208  and  _209
REMARK   90  A    between atoms: _214  and  _216
REMARK   91  A    between atoms: _216  and  _217
REMARK   92  A    between atoms: _216  and  _219
REMARK   93  A    between atoms: _222  and  _224
REMARK   94  A    between atoms: _224  and  _225
REMARK   95  A    between atoms: _224  and  _227
REMARK   96  A    between atoms: _227  and  _228
REMARK   97  A    between atoms: _233  and  _235
REMARK   98  A    between atoms: _235  and  _236
REMARK   99  A    between atoms: _235  and  _238
REMARK  100  A    between atoms: _238  and  _239
REMARK  101  A    between atoms: _242  and  _244
REMARK  102  A    between atoms: _244  and  _245
REMARK  103  A    between atoms: _244  and  _247
REMARK  104  A    between atoms: _247  and  _248
REMARK  105  A    between atoms: _251  and  _253
REMARK  106  A    between atoms: _253  and  _254
REMARK  107  A    between atoms: _256  and  _258
REMARK  108  A    between atoms: _258  and  _259
REMARK  109  A    between atoms: _258  and  _261
REMARK  110  A    between atoms: _261  and  _262
REMARK  111  A    between atoms: _262  and  _263
REMARK  112  A    between atoms: _263  and  _264
REMARK  113  A    between atoms: _273  and  _275
REMARK  114  A    between atoms: _275  and  _276
REMARK  115  A    between atoms: _275  and  _278
REMARK  116  A    between atoms: _278  and  _279
REMARK  117  A    between atoms: _284  and  _286
REMARK  118  A    between atoms: _286  and  _287
REMARK  119  A    between atoms: _286  and  _289
REMARK  120  A    between atoms: _289  and  _290
REMARK  121  A    between atoms: _290  and  _291
REMARK  122  A    between atoms: _291  and  _292
REMARK  123  A    between atoms: _302  and  _303
REMARK  124  A    between atoms: _308  and  _310
REMARK  125  A    between atoms: _310  and  _311
REMARK  126  A    between atoms: _310  and  _313
REMARK  127  A    between atoms: _313  and  _314
REMARK  128  A    between atoms: _317  and  _319
REMARK  129  A    between atoms: _319  and  _320
REMARK  130  A    between atoms: _319  and  _322
REMARK  131  A    between atoms: _322  and  _323
REMARK  132  A    between atoms: _326  and  _328
REMARK  133  A    between atoms: _328  and  _329
REMARK  134  A    between atoms: _328  and  _331
REMARK  135  A    between atoms: _331  and  _332
REMARK  136  A    between atoms: _335  and  _337
REMARK  137  A    between atoms: _337  and  _338
REMARK  138  A    between atoms: _337  and  _340
REMARK  139  A    between atoms: _340  and  _341
REMARK  140  A    between atoms: _344  and  _346
REMARK  141  A    between atoms: _346  and  _347
REMARK  142  A    between atoms: _346  and  _349
REMARK  143  A    between atoms: _349  and  _350
REMARK  144  A    between atoms: _353  and  _355
REMARK  145  A    between atoms: _355  and  _356
REMARK  146  A    between atoms: _358  and  _360
REMARK  147  A    between atoms: _360  and  _361
REMARK  148  A    between atoms: _364  and  _366
REMARK  149  A    between atoms: _366  and  _367
REMARK  150  A    between atoms: _366  and  _369
REMARK  151  A    between atoms: _369  and  _370
REMARK  152  A    between atoms: _373  and  _375
REMARK  153  A    between atoms: _375  and  _376
REMARK  154  A    between atoms: _375  and  _378
REMARK  155  A    between atoms: _378  and  _379
REMARK  156  A    between atoms: _382  and  _384
REMARK  157  A    between atoms: _384  and  _385
REMARK  158  A    between atoms: _384  and  _387
REMARK  159  A    between atoms: _387  and  _388
REMARK  160  A    between atoms: _391  and  _393
REMARK  161  A    between atoms: _393  and  _394
REMARK  162  A    between atoms: _393  and  _396
REMARK  163  A    between atoms: _399  and  _401
REMARK  164  A    between atoms: _401  and  _402
REMARK  165  A    between atoms: _401  and  _404
REMARK  166  A    between atoms: _404  and  _405
REMARK  167  A    between atoms: _408  and  _410
REMARK  168  A    between atoms: _410  and  _411
REMARK  169  A    between atoms: _410  and  _413
REMARK  170  A    between atoms: _413  and  _414
REMARK  171  A    between atoms: _417  and  _419
REMARK  172  A    between atoms: _419  and  _420
REMARK  173  A    between atoms: _422  and  _424
REMARK  174  A    between atoms: _424  and  _425
REMARK  175  A    between atoms: _427  and  _429
REMARK  176  A    between atoms: _429  and  _430
REMARK  177  A    between atoms: _429  and  _432
REMARK  178  A    between atoms: _435  and  _437
REMARK  179  A    between atoms: _437  and  _438
REMARK  180  A    between atoms: _440  and  _442
REMARK  181  A    between atoms: _442  and  _443
REMARK  182  A    between atoms: _445  and  _447
REMARK  183  A    between atoms: _447  and  _448
REMARK  184  A    between atoms: _447  and  _450
REMARK  185  A    between atoms: _450  and  _451
REMARK  186  A    between atoms: _457  and  _459
REMARK  187  A    between atoms: _459  and  _460
REMARK  188  A    between atoms: _459  and  _462
REMARK  189  A    between atoms: _462  and  _463
REMARK  190  A    between atoms: _466  and  _468
REMARK  191  A    between atoms: _468  and  _469
REMARK  192  A    between atoms: _468  and  _471
REMARK  193  A    between atoms: _474  and  _476
REMARK  194  A    between atoms: _476  and  _477
REMARK  195  A    between atoms: _476  and  _479
REMARK  196  A    between atoms: _479  and  _480
REMARK  197  A    between atoms: _483  and  _485
REMARK  198  A    between atoms: _485  and  _486
REMARK  199  A    between atoms: _485  and  _488
REMARK  200  A    between atoms: _488  and  _489
REMARK  201  A    between atoms: _493  and  _494
REMARK  202  A    between atoms: _499  and  _501
REMARK  203  A    between atoms: _501  and  _502
REMARK  204  A    between atoms: _501  and  _504
REMARK  205  A    between atoms: _507  and  _509
REMARK  206  A    between atoms: _509  and  _510
REMARK  207  A    between atoms: _509  and  _512
REMARK  208  A    between atoms: _512  and  _513
REMARK  209  A    between atoms: _518  and  _520
REMARK  210  A    between atoms: _520  and  _521
REMARK  211  A    between atoms: _520  and  _523
REMARK  212  A    between atoms: _523  and  _524
REMARK  213  A    between atoms: _527  and  _529
REMARK  214  A    between atoms: _529  and  _530
REMARK  215  A    between atoms: _529  and  _532
REMARK  216  A    between atoms: _532  and  _533
REMARK  217  A    between atoms: _536  and  _538
REMARK  218  A    between atoms: _538  and  _539
REMARK  219  A    between atoms: _541  and  _543
REMARK  220  A    between atoms: _543  and  _544
REMARK  221  A    between atoms: _543  and  _546
REMARK  222  A    between atoms: _546  and  _547
REMARK  223  A    between atoms: _547  and  _548
REMARK  224  A    between atoms: _548  and  _549
REMARK                            x       y       z     vdW  Elec       q    Type
REMARK                         _______ _______ _______ _____ _____    ______ ____
ROOT
ATOM      1  O   HOH     1      -5.894  26.621  11.211  0.00  0.00    +0.000 OA
ENDROOT
TORSDOF 0
REMARK  Name = ../refined-set-2016/2o4l/2o4l_pocket.pdb
REMARK  224 active torsions:
REMARK  status: ('A' for Active; 'I' for Inactive)
REMARK    1  A    between atoms: _1  and  _3
REMARK    2  A    between atoms: _3  and  _4
REMARK    3  A    between atoms: _3  and  _6
REMARK    4  A    between atoms: _6  and  _7
REMARK    5  A    between atoms: _7  and  _8
REMARK    6  A    between atoms: _8  and  _9
REMARK    7  A    between atoms: _18  and  _20
REMARK    8  A    between atoms: _20  and  _21
REMARK    9  A    between atoms: _20  and  _23
REMARK   10  A    between atoms: _23  and  _24
REMARK   11  A    between atoms: _27  and  _29
REMARK   12  A    between atoms: _29  and  _30
REMARK   13  A    between atoms: _29  and  _32
REMARK   14  A    between atoms: _32  and  _33
REMARK   15  A    between atoms: _36  and  _38
REMARK   16  A    between atoms: _38  and  _39
REMARK   17  A    between atoms: _38  and  _41
REMARK   18  A    between atoms: _41  and  _42
REMARK   19  A    between atoms: _45  and  _47
REMARK   20  A    between atoms: _47  and  _48
REMARK   21  A    between atoms: _47  and  _50
REMARK   22  A    between atoms: _50  and  _51
REMARK   23  A    between atoms: _54  and  _56
REMARK   24  A    between atoms: _56  and  _57
REMARK   25  A    between atoms: _56  and  _59
REMARK   26  A    between atoms: _59  and  _60
REMARK   27  A    between atoms: _63  and  _65
REMARK   28  A    between atoms: _65  and  _66
REMARK   29  A    between atoms: _68  and  _70
REMARK   30  A    between atoms: _70  and  _71
REMARK   31  A    between atoms: _74  and  _76
REMARK   32  A    between atoms: _76  and  _77
REMARK   33  A    between atoms: _76  and  _79
REMARK   34  A    between atoms: _79  and  _80
REMARK   35  A    between atoms: _83  and  _85
REMARK   36  A    between atoms: _85  and  _86
REMARK   37  A    between atoms: _85  and  _88
REMARK   38  A    between atoms: _88  and  _89
REMARK   39  A    between atoms: _92  and  _94
REMARK   40  A    between atoms: _94  and  _95
REMARK   41  A    between atoms: _94  and  _97
REMARK   42  A    between atoms: _97  and  _98
REMARK   43  A    between atoms: _101  and  _103
REMARK   44  A    between atoms: _103  and  _104
REMARK   45  A    between atoms: _103  and  _106
REMARK   46  A    between atoms: _109  and  _111
REMARK   47  A    between atoms: _111  and  _112
REMARK   48  A    between atoms: _111  and  _114
REMARK   49  A    between atoms: _114  and  _115
REMARK   50  A    between atoms: _115  and  _116
REMARK   51  A    between atoms: _116  and  _117
REMARK   52  A    between atoms: _117  and  _118
REMARK   53  A    between atoms: _122  and  _124
REMARK   54  A    between atoms: _124  and  _125
REMARK   55  A    between atoms: _124  and  _127
REMARK   56  A    between atoms: _127  and  _128
REMARK   57  A    between atoms: _128  and  _129
REMARK   58  A    between atoms: _131  and  _133
REMARK   59  A    between atoms: _133  and  _134
REMARK   60  A    between atoms: _133  and  _136
REMARK   61  A    between atoms: _136  and  _137
REMARK   62  A    between atoms: _140  and  _142
REMARK   63  A    between atoms: _142  and  _143
REMARK   64  A    between atoms: _145  and  _147
REMARK   65  A    between atoms: _147  and  _148
REMARK   66  A    between atoms: _150  and  _152
REMARK   67  A    between atoms: _152  and  _153
REMARK   68  A    between atoms: _152  and  _155
REMARK   69  A    between atoms: _158  and  _160
REMARK   70  A    between atoms: _160  and  _161
REMARK   71  A    between atoms: _163  and  _165
REMARK   72  A    between atoms: _165  and  _166
REMARK   73  A    between atoms: _168  and  _170
REMARK   74  A    between atoms: _170  and  _171
REMARK   75  A    between atoms: _170  and  _173
REMARK   76  A    between atoms: _173  and  _174
REMARK   77  A    between atoms: _180  and  _182
REMARK   78  A    between atoms: _182  and  _183
REMARK   79  A    between atoms: _182  and  _185
REMARK   80  A    between atoms: _185  and  _186
REMARK   81  A    between atoms: _189  and  _191
REMARK   82  A    between atoms: _191  and  _192
REMARK   83  A    between atoms: _191  and  _194
REMARK   84  A    between atoms: _194  and  _195
REMARK   85  A    between atoms: _198  and  _200
REMARK   86  A    between atoms: _200  and  _201
REMARK   87  A    between atoms: _200  and  _203
REMARK   88  A    between atoms: _203  and  _204
REMARK   89  A    between atoms: _208  and  _209
REMARK   90  A    between atoms: _214  and  _216
REMARK   91  A    between atoms: _216  and  _217
REMARK   92  A    between atoms: _216  and  _219
REMARK   93  A    between atoms: _222  and  _224
REMARK   94  A    between atoms: _224  and  _225
REMARK   95  A    between atoms: _224  and  _227
REMARK   96  A    between atoms: _227  and  _228
REMARK   97  A    between atoms: _233  and  _235
REMARK   98  A    between atoms: _235  and  _236
REMARK   99  A    between atoms: _235  and  _238
REMARK  100  A    between atoms: _238  and  _239
REMARK  101  A    between atoms: _242  and  _244
REMARK  102  A    between atoms: _244  and  _245
REMARK  103  A    between atoms: _244  and  _247
REMARK  104  A    between atoms: _247  and  _248
REMARK  105  A    between atoms: _251  and  _253
REMARK  106  A    between atoms: _253  and  _254
REMARK  107  A    between atoms: _256  and  _258
REMARK  108  A    between atoms: _258  and  _259
REMARK  109  A    between atoms: _258  and  _261
REMARK  110  A    between atoms: _261  and  _262
REMARK  111  A    between atoms: _262  and  _263
REMARK  112  A    between atoms: _263  and  _264
REMARK  113  A    between atoms: _273  and  _275
REMARK  114  A    between atoms: _275  and  _276
REMARK  115  A    between atoms: _275  and  _278
REMARK  116  A    between atoms: _278  and  _279
REMARK  117  A    between atoms: _284  and  _286
REMARK  118  A    between atoms: _286  and  _287
REMARK  119  A    between atoms: _286  and  _289
REMARK  120  A    between atoms: _289  and  _290
REMARK  121  A    between atoms: _290  and  _291
REMARK  122  A    between atoms: _291  and  _292
REMARK  123  A    between atoms: _302  and  _303
REMARK  124  A    between atoms: _308  and  _310
REMARK  125  A    between atoms: _310  and  _311
REMARK  126  A    between atoms: _310  and  _313
REMARK  127  A    between atoms: _313  and  _314
REMARK  128  A    between atoms: _317  and  _319
REMARK  129  A    between atoms: _319  and  _320
REMARK  130  A    between atoms: _319  and  _322
REMARK  131  A    between atoms: _322  and  _323
REMARK  132  A    between atoms: _326  and  _328
REMARK  133  A    between atoms: _328  and  _329
REMARK  134  A    between atoms: _328  and  _331
REMARK  135  A    between atoms: _331  and  _332
REMARK  136  A    between atoms: _335  and  _337
REMARK  137  A    between atoms: _337  and  _338
REMARK  138  A    between atoms: _337  and  _340
REMARK  139  A    between atoms: _340  and  _341
REMARK  140  A    between atoms: _344  and  _346
REMARK  141  A    between atoms: _346  and  _347
REMARK  142  A    between atoms: _346  and  _349
REMARK  143  A    between atoms: _349  and  _350
REMARK  144  A    between atoms: _353  and  _355
REMARK  145  A    between atoms: _355  and  _356
REMARK  146  A    between atoms: _358  and  _360
REMARK  147  A    between atoms: _360  and  _361
REMARK  148  A    between atoms: _364  and  _366
REMARK  149  A    between atoms: _366  and  _367
REMARK  150  A    between atoms: _366  and  _369
REMARK  151  A    between atoms: _369  and  _370
REMARK  152  A    between atoms: _373  and  _375
REMARK  153  A    between atoms: _375  and  _376
REMARK  154  A    between atoms: _375  and  _378
REMARK  155  A    between atoms: _378  and  _379
REMARK  156  A    between atoms: _382  and  _384
REMARK  157  A    between atoms: _384  and  _385
REMARK  158  A    between atoms: _384  and  _387
REMARK  159  A    between atoms: _387  and  _388
REMARK  160  A    between atoms: _391  and  _393
REMARK  161  A    between atoms: _393  and  _394
REMARK  162  A    between atoms: _393  and  _396
REMARK  163  A    between atoms: _399  and  _401
REMARK  164  A    between atoms: _401  and  _402
REMARK  165  A    between atoms: _401  and  _404
REMARK  166  A    between atoms: _404  and  _405
REMARK  167  A    between atoms: _408  and  _410
REMARK  168  A    between atoms: _410  and  _411
REMARK  169  A    between atoms: _410  and  _413
REMARK  170  A    between atoms: _413  and  _414
REMARK  171  A    between atoms: _417  and  _419
REMARK  172  A    between atoms: _419  and  _420
REMARK  173  A    between atoms: _422  and  _424
REMARK  174  A    between atoms: _424  and  _425
REMARK  175  A    between atoms: _427  and  _429
REMARK  176  A    between atoms: _429  and  _430
REMARK  177  A    between atoms: _429  and  _432
REMARK  178  A    between atoms: _435  and  _437
REMARK  179  A    between atoms: _437  and  _438
REMARK  180  A    between atoms: _440  and  _442
REMARK  181  A    between atoms: _442  and  _443
REMARK  182  A    between atoms: _445  and  _447
REMARK  183  A    between atoms: _447  and  _448
REMARK  184  A    between atoms: _447  and  _450
REMARK  185  A    between atoms: _450  and  _451
REMARK  186  A    between atoms: _457  and  _459
REMARK  187  A    between atoms: _459  and  _460
REMARK  188  A    between atoms: _459  and  _462
REMARK  189  A    between atoms: _462  and  _463
REMARK  190  A    between atoms: _466  and  _468
REMARK  191  A    between atoms: _468  and  _469
REMARK  192  A    between atoms: _468  and  _471
REMARK  193  A    between atoms: _474  and  _476
REMARK  194  A    between atoms: _476  and  _477
REMARK  195  A    between atoms: _476  and  _479
REMARK  196  A    between atoms: _479  and  _480
REMARK  197  A    between atoms: _483  and  _485
REMARK  198  A    between atoms: _485  and  _486
REMARK  199  A    between atoms: _485  and  _488
REMARK  200  A    between atoms: _488  and  _489
REMARK  201  A    between atoms: _493  and  _494
REMARK  202  A    between atoms: _499  and  _501
REMARK  203  A    between atoms: _501  and  _502
REMARK  204  A    between atoms: _501  and  _504
REMARK  205  A    between atoms: _507  and  _509
REMARK  206  A    between atoms: _509  and  _510
REMARK  207  A    between atoms: _509  and  _512
REMARK  208  A    between atoms: _512  and  _513
REMARK  209  A    between atoms: _518  and  _520
REMARK  210  A    between atoms: _520  and  _521
REMARK  211  A    between atoms: _520  and  _523
REMARK  212  A    between atoms: _523  and  _524
REMARK  213  A    between atoms: _527  and  _529
REMARK  214  A    between atoms: _529  and  _530
REMARK  215  A    between atoms: _529  and  _532
REMARK  216  A    between atoms: _532  and  _533
REMARK  217  A    between atoms: _536  and  _538
REMARK  218  A    between atoms: _538  and  _539
REMARK  219  A    between atoms: _541  and  _543
REMARK  220  A    between atoms: _543  and  _544
REMARK  221  A    between atoms: _543  and  _546
REMARK  222  A    between atoms: _546  and  _547
REMARK  223  A    between atoms: _547  and  _548
REMARK  224  A    between atoms: _548  and  _549
REMARK                            x       y       z     vdW  Elec       q    Type
REMARK                         _______ _______ _______ _____ _____    ______ ____
ROOT
ATOM      1  O   HOH     1     -19.463  12.660  21.196  0.00  0.00    +0.000 OA
ENDROOT
TORSDOF 0
REMARK  Name = ../refined-set-2016/2o4l/2o4l_pocket.pdb
REMARK  224 active torsions:
REMARK  status: ('A' for Active; 'I' for Inactive)
REMARK    1  A    between atoms: _1  and  _3
REMARK    2  A    between atoms: _3  and  _4
REMARK    3  A    between atoms: _3  and  _6
REMARK    4  A    between atoms: _6  and  _7
REMARK    5  A    between atoms: _7  and  _8
REMARK    6  A    between atoms: _8  and  _9
REMARK    7  A    between atoms: _18  and  _20
REMARK    8  A    between atoms: _20  and  _21
REMARK    9  A    between atoms: _20  and  _23
REMARK   10  A    between atoms: _23  and  _24
REMARK   11  A    between atoms: _27  and  _29
REMARK   12  A    between atoms: _29  and  _30
REMARK   13  A    between atoms: _29  and  _32
REMARK   14  A    between atoms: _32  and  _33
REMARK   15  A    between atoms: _36  and  _38
REMARK   16  A    between atoms: _38  and  _39
REMARK   17  A    between atoms: _38  and  _41
REMARK   18  A    between atoms: _41  and  _42
REMARK   19  A    between atoms: _45  and  _47
REMARK   20  A    between atoms: _47  and  _48
REMARK   21  A    between atoms: _47  and  _50
REMARK   22  A    between atoms: _50  and  _51
REMARK   23  A    between atoms: _54  and  _56
REMARK   24  A    between atoms: _56  and  _57
REMARK   25  A    between atoms: _56  and  _59
REMARK   26  A    between atoms: _59  and  _60
REMARK   27  A    between atoms: _63  and  _65
REMARK   28  A    between atoms: _65  and  _66
REMARK   29  A    between atoms: _68  and  _70
REMARK   30  A    between atoms: _70  and  _71
REMARK   31  A    between atoms: _74  and  _76
REMARK   32  A    between atoms: _76  and  _77
REMARK   33  A    between atoms: _76  and  _79
REMARK   34  A    between atoms: _79  and  _80
REMARK   35  A    between atoms: _83  and  _85
REMARK   36  A    between atoms: _85  and  _86
REMARK   37  A    between atoms: _85  and  _88
REMARK   38  A    between atoms: _88  and  _89
REMARK   39  A    between atoms: _92  and  _94
REMARK   40  A    between atoms: _94  and  _95
REMARK   41  A    between atoms: _94  and  _97
REMARK   42  A    between atoms: _97  and  _98
REMARK   43  A    between atoms: _101  and  _103
REMARK   44  A    between atoms: _103  and  _104
REMARK   45  A    between atoms: _103  and  _106
REMARK   46  A    between atoms: _109  and  _111
REMARK   47  A    between atoms: _111  and  _112
REMARK   48  A    between atoms: _111  and  _114
REMARK   49  A    between atoms: _114  and  _115
REMARK   50  A    between atoms: _115  and  _116
REMARK   51  A    between atoms: _116  and  _117
REMARK   52  A    between atoms: _117  and  _118
REMARK   53  A    between atoms: _122  and  _124
REMARK   54  A    between atoms: _124  and  _125
REMARK   55  A    between atoms: _124  and  _127
REMARK   56  A    between atoms: _127  and  _128
REMARK   57  A    between atoms: _128  and  _129
REMARK   58  A    between atoms: _131  and  _133
REMARK   59  A    between atoms: _133  and  _134
REMARK   60  A    between atoms: _133  and  _136
REMARK   61  A    between atoms: _136  and  _137
REMARK   62  A    between atoms: _140  and  _142
REMARK   63  A    between atoms: _142  and  _143
REMARK   64  A    between atoms: _145  and  _147
REMARK   65  A    between atoms: _147  and  _148
REMARK   66  A    between atoms: _150  and  _152
REMARK   67  A    between atoms: _152  and  _153
REMARK   68  A    between atoms: _152  and  _155
REMARK   69  A    between atoms: _158  and  _160
REMARK   70  A    between atoms: _160  and  _161
REMARK   71  A    between atoms: _163  and  _165
REMARK   72  A    between atoms: _165  and  _166
REMARK   73  A    between atoms: _168  and  _170
REMARK   74  A    between atoms: _170  and  _171
REMARK   75  A    between atoms: _170  and  _173
REMARK   76  A    between atoms: _173  and  _174
REMARK   77  A    between atoms: _180  and  _182
REMARK   78  A    between atoms: _182  and  _183
REMARK   79  A    between atoms: _182  and  _185
REMARK   80  A    between atoms: _185  and  _186
REMARK   81  A    between atoms: _189  and  _191
REMARK   82  A    between atoms: _191  and  _192
REMARK   83  A    between atoms: _191  and  _194
REMARK   84  A    between atoms: _194  and  _195
REMARK   85  A    between atoms: _198  and  _200
REMARK   86  A    between atoms: _200  and  _201
REMARK   87  A    between atoms: _200  and  _203
REMARK   88  A    between atoms: _203  and  _204
REMARK   89  A    between atoms: _208  and  _209
REMARK   90  A    between atoms: _214  and  _216
REMARK   91  A    between atoms: _216  and  _217
REMARK   92  A    between atoms: _216  and  _219
REMARK   93  A    between atoms: _222  and  _224
REMARK   94  A    between atoms: _224  and  _225
REMARK   95  A    between atoms: _224  and  _227
REMARK   96  A    between atoms: _227  and  _228
REMARK   97  A    between atoms: _233  and  _235
REMARK   98  A    between atoms: _235  and  _236
REMARK   99  A    between atoms: _235  and  _238
REMARK  100  A    between atoms: _238  and  _239
REMARK  101  A    between atoms: _242  and  _244
REMARK  102  A    between atoms: _244  and  _245
REMARK  103  A    between atoms: _244  and  _247
REMARK  104  A    between atoms: _247  and  _248
REMARK  105  A    between atoms: _251  and  _253
REMARK  106  A    between atoms: _253  and  _254
REMARK  107  A    between atoms: _256  and  _258
REMARK  108  A    between atoms: _258  and  _259
REMARK  109  A    between atoms: _258  and  _261
REMARK  110  A    between atoms: _261  and  _262
REMARK  111  A    between atoms: _262  and  _263
REMARK  112  A    between atoms: _263  and  _264
REMARK  113  A    between atoms: _273  and  _275
REMARK  114  A    between atoms: _275  and  _276
REMARK  115  A    between atoms: _275  and  _278
REMARK  116  A    between atoms: _278  and  _279
REMARK  117  A    between atoms: _284  and  _286
REMARK  118  A    between atoms: _286  and  _287
REMARK  119  A    between atoms: _286  and  _289
REMARK  120  A    between atoms: _289  and  _290
REMARK  121  A    between atoms: _290  and  _291
REMARK  122  A    between atoms: _291  and  _292
REMARK  123  A    between atoms: _302  and  _303
REMARK  124  A    between atoms: _308  and  _310
REMARK  125  A    between atoms: _310  and  _311
REMARK  126  A    between atoms: _310  and  _313
REMARK  127  A    between atoms: _313  and  _314
REMARK  128  A    between atoms: _317  and  _319
REMARK  129  A    between atoms: _319  and  _320
REMARK  130  A    between atoms: _319  and  _322
REMARK  131  A    between atoms: _322  and  _323
REMARK  132  A    between atoms: _326  and  _328
REMARK  133  A    between atoms: _328  and  _329
REMARK  134  A    between atoms: _328  and  _331
REMARK  135  A    between atoms: _331  and  _332
REMARK  136  A    between atoms: _335  and  _337
REMARK  137  A    between atoms: _337  and  _338
REMARK  138  A    between atoms: _337  and  _340
REMARK  139  A    between atoms: _340  and  _341
REMARK  140  A    between atoms: _344  and  _346
REMARK  141  A    between atoms: _346  and  _347
REMARK  142  A    between atoms: _346  and  _349
REMARK  143  A    between atoms: _349  and  _350
REMARK  144  A    between atoms: _353  and  _355
REMARK  145  A    between atoms: _355  and  _356
REMARK  146  A    between atoms: _358  and  _360
REMARK  147  A    between atoms: _360  and  _361
REMARK  148  A    between atoms: _364  and  _366
REMARK  149  A    between atoms: _366  and  _367
REMARK  150  A    between atoms: _366  and  _369
REMARK  151  A    between atoms: _369  and  _370
REMARK  152  A    between atoms: _373  and  _375
REMARK  153  A    between atoms: _375  and  _376
REMARK  154  A    between atoms: _375  and  _378
REMARK  155  A    between atoms: _378  and  _379
REMARK  156  A    between atoms: _382  and  _384
REMARK  157  A    between atoms: _384  and  _385
REMARK  158  A    between atoms: _384  and  _387
REMARK  159  A    between atoms: _387  and  _388
REMARK  160  A    between atoms: _391  and  _393
REMARK  161  A    between atoms: _393  and  _394
REMARK  162  A    between atoms: _393  and  _396
REMARK  163  A    between atoms: _399  and  _401
REMARK  164  A    between atoms: _401  and  _402
REMARK  165  A    between atoms: _401  and  _404
REMARK  166  A    between atoms: _404  and  _405
REMARK  167  A    between atoms: _408  and  _410
REMARK  168  A    between atoms: _410  and  _411
REMARK  169  A    between atoms: _410  and  _413
REMARK  170  A    between atoms: _413  and  _414
REMARK  171  A    between atoms: _417  and  _419
REMARK  172  A    between atoms: _419  and  _420
REMARK  173  A    between atoms: _422  and  _424
REMARK  174  A    between atoms: _424  and  _425
REMARK  175  A    between atoms: _427  and  _429
REMARK  176  A    between atoms: _429  and  _430
REMARK  177  A    between atoms: _429  and  _432
REMARK  178  A    between atoms: _435  and  _437
REMARK  179  A    between atoms: _437  and  _438
REMARK  180  A    between atoms: _440  and  _442
REMARK  181  A    between atoms: _442  and  _443
REMARK  182  A    between atoms: _445  and  _447
REMARK  183  A    between atoms: _447  and  _448
REMARK  184  A    between atoms: _447  and  _450
REMARK  185  A    between atoms: _450  and  _451
REMARK  186  A    between atoms: _457  and  _459
REMARK  187  A    between atoms: _459  and  _460
REMARK  188  A    between atoms: _459  and  _462
REMARK  189  A    between atoms: _462  and  _463
REMARK  190  A    between atoms: _466  and  _468
REMARK  191  A    between atoms: _468  and  _469
REMARK  192  A    between atoms: _468  and  _471
REMARK  193  A    between atoms: _474  and  _476
REMARK  194  A    between atoms: _476  and  _477
REMARK  195  A    between atoms: _476  and  _479
REMARK  196  A    between atoms: _479  and  _480
REMARK  197  A    between atoms: _483  and  _485
REMARK  198  A    between atoms: _485  and  _486
REMARK  199  A    between atoms: _485  and  _488
REMARK  200  A    between atoms: _488  and  _489
REMARK  201  A    between atoms: _493  and  _494
REMARK  202  A    between atoms: _499  and  _501
REMARK  203  A    between atoms: _501  and  _502
REMARK  204  A    between atoms: _501  and  _504
REMARK  205  A    between atoms: _507  and  _509
REMARK  206  A    between atoms: _509  and  _510
REMARK  207  A    between atoms: _509  and  _512
REMARK  208  A    between atoms: _512  and  _513
REMARK  209  A    between atoms: _518  and  _520
REMARK  210  A    between atoms: _520  and  _521
REMARK  211  A    between atoms: _520  and  _523
REMARK  212  A    between atoms: _523  and  _524
REMARK  213  A    between atoms: _527  and  _529
REMARK  214  A    between atoms: _529  and  _530
REMARK  215  A    between atoms: _529  and  _532
REMARK  216  A    between atoms: _532  and  _533
REMARK  217  A    between atoms: _536  and  _538
REMARK  218  A    between atoms: _538  and  _539
REMARK  219  A    between atoms: _541  and  _543
REMARK  220  A    between atoms: _543  and  _544
REMARK  221  A    between atoms: _543  and  _546
REMARK  222  A    between atoms: _546  and  _547
REMARK  223  A    between atoms: _547  and  _548
REMARK  224  A    between atoms: _548  and  _549
REMARK                            x       y       z     vdW  Elec       q    Type
REMARK                         _______ _______ _______ _____ _____    ______ ____
ROOT
ATOM      1  O   HOH     1      -7.400  19.421  18.122  0.00  0.00    +0.000 OA
ENDROOT
TORSDOF 0
REMARK  Name = ../refined-set-2016/2o4l/2o4l_pocket.pdb
REMARK  224 active torsions:
REMARK  status: ('A' for Active; 'I' for Inactive)
REMARK    1  A    between atoms: _1  and  _3
REMARK    2  A    between atoms: _3  and  _4
REMARK    3  A    between atoms: _3  and  _6
REMARK    4  A    between atoms: _6  and  _7
REMARK    5  A    between atoms: _7  and  _8
REMARK    6  A    between atoms: _8  and  _9
REMARK    7  A    between atoms: _18  and  _20
REMARK    8  A    between atoms: _20  and  _21
REMARK    9  A    between atoms: _20  and  _23
REMARK   10  A    between atoms: _23  and  _24
REMARK   11  A    between atoms: _27  and  _29
REMARK   12  A    between atoms: _29  and  _30
REMARK   13  A    between atoms: _29  and  _32
REMARK   14  A    between atoms: _32  and  _33
REMARK   15  A    between atoms: _36  and  _38
REMARK   16  A    between atoms: _38  and  _39
REMARK   17  A    between atoms: _38  and  _41
REMARK   18  A    between atoms: _41  and  _42
REMARK   19  A    between atoms: _45  and  _47
REMARK   20  A    between atoms: _47  and  _48
REMARK   21  A    between atoms: _47  and  _50
REMARK   22  A    between atoms: _50  and  _51
REMARK   23  A    between atoms: _54  and  _56
REMARK   24  A    between atoms: _56  and  _57
REMARK   25  A    between atoms: _56  and  _59
REMARK   26  A    between atoms: _59  and  _60
REMARK   27  A    between atoms: _63  and  _65
REMARK   28  A    between atoms: _65  and  _66
REMARK   29  A    between atoms: _68  and  _70
REMARK   30  A    between atoms: _70  and  _71
REMARK   31  A    between atoms: _74  and  _76
REMARK   32  A    between atoms: _76  and  _77
REMARK   33  A    between atoms: _76  and  _79
REMARK   34  A    between atoms: _79  and  _80
REMARK   35  A    between atoms: _83  and  _85
REMARK   36  A    between atoms: _85  and  _86
REMARK   37  A    between atoms: _85  and  _88
REMARK   38  A    between atoms: _88  and  _89
REMARK   39  A    between atoms: _92  and  _94
REMARK   40  A    between atoms: _94  and  _95
REMARK   41  A    between atoms: _94  and  _97
REMARK   42  A    between atoms: _97  and  _98
REMARK   43  A    between atoms: _101  and  _103
REMARK   44  A    between atoms: _103  and  _104
REMARK   45  A    between atoms: _103  and  _106
REMARK   46  A    between atoms: _109  and  _111
REMARK   47  A    between atoms: _111  and  _112
REMARK   48  A    between atoms: _111  and  _114
REMARK   49  A    between atoms: _114  and  _115
REMARK   50  A    between atoms: _115  and  _116
REMARK   51  A    between atoms: _116  and  _117
REMARK   52  A    between atoms: _117  and  _118
REMARK   53  A    between atoms: _122  and  _124
REMARK   54  A    between atoms: _124  and  _125
REMARK   55  A    between atoms: _124  and  _127
REMARK   56  A    between atoms: _127  and  _128
REMARK   57  A    between atoms: _128  and  _129
REMARK   58  A    between atoms: _131  and  _133
REMARK   59  A    between atoms: _133  and  _134
REMARK   60  A    between atoms: _133  and  _136
REMARK   61  A    between atoms: _136  and  _137
REMARK   62  A    between atoms: _140  and  _142
REMARK   63  A    between atoms: _142  and  _143
REMARK   64  A    between atoms: _145  and  _147
REMARK   65  A    between atoms: _147  and  _148
REMARK   66  A    between atoms: _150  and  _152
REMARK   67  A    between atoms: _152  and  _153
REMARK   68  A    between atoms: _152  and  _155
REMARK   69  A    between atoms: _158  and  _160
REMARK   70  A    between atoms: _160  and  _161
REMARK   71  A    between atoms: _163  and  _165
REMARK   72  A    between atoms: _165  and  _166
REMARK   73  A    between atoms: _168  and  _170
REMARK   74  A    between atoms: _170  and  _171
REMARK   75  A    between atoms: _170  and  _173
REMARK   76  A    between atoms: _173  and  _174
REMARK   77  A    between atoms: _180  and  _182
REMARK   78  A    between atoms: _182  and  _183
REMARK   79  A    between atoms: _182  and  _185
REMARK   80  A    between atoms: _185  and  _186
REMARK   81  A    between atoms: _189  and  _191
REMARK   82  A    between atoms: _191  and  _192
REMARK   83  A    between atoms: _191  and  _194
REMARK   84  A    between atoms: _194  and  _195
REMARK   85  A    between atoms: _198  and  _200
REMARK   86  A    between atoms: _200  and  _201
REMARK   87  A    between atoms: _200  and  _203
REMARK   88  A    between atoms: _203  and  _204
REMARK   89  A    between atoms: _208  and  _209
REMARK   90  A    between atoms: _214  and  _216
REMARK   91  A    between atoms: _216  and  _217
REMARK   92  A    between atoms: _216  and  _219
REMARK   93  A    between atoms: _222  and  _224
REMARK   94  A    between atoms: _224  and  _225
REMARK   95  A    between atoms: _224  and  _227
REMARK   96  A    between atoms: _227  and  _228
REMARK   97  A    between atoms: _233  and  _235
REMARK   98  A    between atoms: _235  and  _236
REMARK   99  A    between atoms: _235  and  _238
REMARK  100  A    between atoms: _238  and  _239
REMARK  101  A    between atoms: _242  and  _244
REMARK  102  A    between atoms: _244  and  _245
REMARK  103  A    between atoms: _244  and  _247
REMARK  104  A    between atoms: _247  and  _248
REMARK  105  A    between atoms: _251  and  _253
REMARK  106  A    between atoms: _253  and  _254
REMARK  107  A    between atoms: _256  and  _258
REMARK  108  A    between atoms: _258  and  _259
REMARK  109  A    between atoms: _258  and  _261
REMARK  110  A    between atoms: _261  and  _262
REMARK  111  A    between atoms: _262  and  _263
REMARK  112  A    between atoms: _263  and  _264
REMARK  113  A    between atoms: _273  and  _275
REMARK  114  A    between atoms: _275  and  _276
REMARK  115  A    between atoms: _275  and  _278
REMARK  116  A    between atoms: _278  and  _279
REMARK  117  A    between atoms: _284  and  _286
REMARK  118  A    between atoms: _286  and  _287
REMARK  119  A    between atoms: _286  and  _289
REMARK  120  A    between atoms: _289  and  _290
REMARK  121  A    between atoms: _290  and  _291
REMARK  122  A    between atoms: _291  and  _292
REMARK  123  A    between atoms: _302  and  _303
REMARK  124  A    between atoms: _308  and  _310
REMARK  125  A    between atoms: _310  and  _311
REMARK  126  A    between atoms: _310  and  _313
REMARK  127  A    between atoms: _313  and  _314
REMARK  128  A    between atoms: _317  and  _319
REMARK  129  A    between atoms: _319  and  _320
REMARK  130  A    between atoms: _319  and  _322
REMARK  131  A    between atoms: _322  and  _323
REMARK  132  A    between atoms: _326  and  _328
REMARK  133  A    between atoms: _328  and  _329
REMARK  134  A    between atoms: _328  and  _331
REMARK  135  A    between atoms: _331  and  _332
REMARK  136  A    between atoms: _335  and  _337
REMARK  137  A    between atoms: _337  and  _338
REMARK  138  A    between atoms: _337  and  _340
REMARK  139  A    between atoms: _340  and  _341
REMARK  140  A    between atoms: _344  and  _346
REMARK  141  A    between atoms: _346  and  _347
REMARK  142  A    between atoms: _346  and  _349
REMARK  143  A    between atoms: _349  and  _350
REMARK  144  A    between atoms: _353  and  _355
REMARK  145  A    between atoms: _355  and  _356
REMARK  146  A    between atoms: _358  and  _360
REMARK  147  A    between atoms: _360  and  _361
REMARK  148  A    between atoms: _364  and  _366
REMARK  149  A    between atoms: _366  and  _367
REMARK  150  A    between atoms: _366  and  _369
REMARK  151  A    between atoms: _369  and  _370
REMARK  152  A    between atoms: _373  and  _375
REMARK  153  A    between atoms: _375  and  _376
REMARK  154  A    between atoms: _375  and  _378
REMARK  155  A    between atoms: _378  and  _379
REMARK  156  A    between atoms: _382  and  _384
REMARK  157  A    between atoms: _384  and  _385
REMARK  158  A    between atoms: _384  and  _387
REMARK  159  A    between atoms: _387  and  _388
REMARK  160  A    between atoms: _391  and  _393
REMARK  161  A    between atoms: _393  and  _394
REMARK  162  A    between atoms: _393  and  _396
REMARK  163  A    between atoms: _399  and  _401
REMARK  164  A    between atoms: _401  and  _402
REMARK  165  A    between atoms: _401  and  _404
REMARK  166  A    between atoms: _404  and  _405
REMARK  167  A    between atoms: _408  and  _410
REMARK  168  A    between atoms: _410  and  _411
REMARK  169  A    between atoms: _410  and  _413
REMARK  170  A    between atoms: _413  and  _414
REMARK  171  A    between atoms: _417  and  _419
REMARK  172  A    between atoms: _419  and  _420
REMARK  173  A    between atoms: _422  and  _424
REMARK  174  A    between atoms: _424  and  _425
REMARK  175  A    between atoms: _427  and  _429
REMARK  176  A    between atoms: _429  and  _430
REMARK  177  A    between atoms: _429  and  _432
REMARK  178  A    between atoms: _435  and  _437
REMARK  179  A    between atoms: _437  and  _438
REMARK  180  A    between atoms: _440  and  _442
REMARK  181  A    between atoms: _442  and  _443
REMARK  182  A    between atoms: _445  and  _447
REMARK  183  A    between atoms: _447  and  _448
REMARK  184  A    between atoms: _447  and  _450
REMARK  185  A    between atoms: _450  and  _451
REMARK  186  A    between atoms: _457  and  _459
REMARK  187  A    between atoms: _459  and  _460
REMARK  188  A    between atoms: _459  and  _462
REMARK  189  A    between atoms: _462  and  _463
REMARK  190  A    between atoms: _466  and  _468
REMARK  191  A    between atoms: _468  and  _469
REMARK  192  A    between atoms: _468  and  _471
REMARK  193  A    between atoms: _474  and  _476
REMARK  194  A    between atoms: _476  and  _477
REMARK  195  A    between atoms: _476  and  _479
REMARK  196  A    between atoms: _479  and  _480
REMARK  197  A    between atoms: _483  and  _485
REMARK  198  A    between atoms: _485  and  _486
REMARK  199  A    between atoms: _485  and  _488
REMARK  200  A    between atoms: _488  and  _489
REMARK  201  A    between atoms: _493  and  _494
REMARK  202  A    between atoms: _499  and  _501
REMARK  203  A    between atoms: _501  and  _502
REMARK  204  A    between atoms: _501  and  _504
REMARK  205  A    between atoms: _507  and  _509
REMARK  206  A    between atoms: _509  and  _510
REMARK  207  A    between atoms: _509  and  _512
REMARK  208  A    between atoms: _512  and  _513
REMARK  209  A    between atoms: _518  and  _520
REMARK  210  A    between atoms: _520  and  _521
REMARK  211  A    between atoms: _520  and  _523
REMARK  212  A    between atoms: _523  and  _524
REMARK  213  A    between atoms: _527  and  _529
REMARK  214  A    between atoms: _529  and  _530
REMARK  215  A    between atoms: _529  and  _532
REMARK  216  A    between atoms: _532  and  _533
REMARK  217  A    between atoms: _536  and  _538
REMARK  218  A    between atoms: _538  and  _539
REMARK  219  A    between atoms: _541  and  _543
REMARK  220  A    between atoms: _543  and  _544
REMARK  221  A    between atoms: _543  and  _546
REMARK  222  A    between atoms: _546  and  _547
REMARK  223  A    between atoms: _547  and  _548
REMARK  224  A    between atoms: _548  and  _549
REMARK                            x       y       z     vdW  Elec       q    Type
REMARK                         _______ _______ _______ _____ _____    ______ ____
ROOT
ATOM      1  O   HOH     1     -23.415   8.699  24.407  0.00  0.00    +0.000 OA
ENDROOT
TORSDOF 0
REMARK  Name = ../refined-set-2016/2o4l/2o4l_pocket.pdb
REMARK  224 active torsions:
REMARK  status: ('A' for Active; 'I' for Inactive)
REMARK    1  A    between atoms: _1  and  _3
REMARK    2  A    between atoms: _3  and  _4
REMARK    3  A    between atoms: _3  and  _6
REMARK    4  A    between atoms: _6  and  _7
REMARK    5  A    between atoms: _7  and  _8
REMARK    6  A    between atoms: _8  and  _9
REMARK    7  A    between atoms: _18  and  _20
REMARK    8  A    between atoms: _20  and  _21
REMARK    9  A    between atoms: _20  and  _23
REMARK   10  A    between atoms: _23  and  _24
REMARK   11  A    between atoms: _27  and  _29
REMARK   12  A    between atoms: _29  and  _30
REMARK   13  A    between atoms: _29  and  _32
REMARK   14  A    between atoms: _32  and  _33
REMARK   15  A    between atoms: _36  and  _38
REMARK   16  A    between atoms: _38  and  _39
REMARK   17  A    between atoms: _38  and  _41
REMARK   18  A    between atoms: _41  and  _42
REMARK   19  A    between atoms: _45  and  _47
REMARK   20  A    between atoms: _47  and  _48
REMARK   21  A    between atoms: _47  and  _50
REMARK   22  A    between atoms: _50  and  _51
REMARK   23  A    between atoms: _54  and  _56
REMARK   24  A    between atoms: _56  and  _57
REMARK   25  A    between atoms: _56  and  _59
REMARK   26  A    between atoms: _59  and  _60
REMARK   27  A    between atoms: _63  and  _65
REMARK   28  A    between atoms: _65  and  _66
REMARK   29  A    between atoms: _68  and  _70
REMARK   30  A    between atoms: _70  and  _71
REMARK   31  A    between atoms: _74  and  _76
REMARK   32  A    between atoms: _76  and  _77
REMARK   33  A    between atoms: _76  and  _79
REMARK   34  A    between atoms: _79  and  _80
REMARK   35  A    between atoms: _83  and  _85
REMARK   36  A    between atoms: _85  and  _86
REMARK   37  A    between atoms: _85  and  _88
REMARK   38  A    between atoms: _88  and  _89
REMARK   39  A    between atoms: _92  and  _94
REMARK   40  A    between atoms: _94  and  _95
REMARK   41  A    between atoms: _94  and  _97
REMARK   42  A    between atoms: _97  and  _98
REMARK   43  A    between atoms: _101  and  _103
REMARK   44  A    between atoms: _103  and  _104
REMARK   45  A    between atoms: _103  and  _106
REMARK   46  A    between atoms: _109  and  _111
REMARK   47  A    between atoms: _111  and  _112
REMARK   48  A    between atoms: _111  and  _114
REMARK   49  A    between atoms: _114  and  _115
REMARK   50  A    between atoms: _115  and  _116
REMARK   51  A    between atoms: _116  and  _117
REMARK   52  A    between atoms: _117  and  _118
REMARK   53  A    between atoms: _122  and  _124
REMARK   54  A    between atoms: _124  and  _125
REMARK   55  A    between atoms: _124  and  _127
REMARK   56  A    between atoms: _127  and  _128
REMARK   57  A    between atoms: _128  and  _129
REMARK   58  A    between atoms: _131  and  _133
REMARK   59  A    between atoms: _133  and  _134
REMARK   60  A    between atoms: _133  and  _136
REMARK   61  A    between atoms: _136  and  _137
REMARK   62  A    between atoms: _140  and  _142
REMARK   63  A    between atoms: _142  and  _143
REMARK   64  A    between atoms: _145  and  _147
REMARK   65  A    between atoms: _147  and  _148
REMARK   66  A    between atoms: _150  and  _152
REMARK   67  A    between atoms: _152  and  _153
REMARK   68  A    between atoms: _152  and  _155
REMARK   69  A    between atoms: _158  and  _160
REMARK   70  A    between atoms: _160  and  _161
REMARK   71  A    between atoms: _163  and  _165
REMARK   72  A    between atoms: _165  and  _166
REMARK   73  A    between atoms: _168  and  _170
REMARK   74  A    between atoms: _170  and  _171
REMARK   75  A    between atoms: _170  and  _173
REMARK   76  A    between atoms: _173  and  _174
REMARK   77  A    between atoms: _180  and  _182
REMARK   78  A    between atoms: _182  and  _183
REMARK   79  A    between atoms: _182  and  _185
REMARK   80  A    between atoms: _185  and  _186
REMARK   81  A    between atoms: _189  and  _191
REMARK   82  A    between atoms: _191  and  _192
REMARK   83  A    between atoms: _191  and  _194
REMARK   84  A    between atoms: _194  and  _195
REMARK   85  A    between atoms: _198  and  _200
REMARK   86  A    between atoms: _200  and  _201
REMARK   87  A    between atoms: _200  and  _203
REMARK   88  A    between atoms: _203  and  _204
REMARK   89  A    between atoms: _208  and  _209
REMARK   90  A    between atoms: _214  and  _216
REMARK   91  A    between atoms: _216  and  _217
REMARK   92  A    between atoms: _216  and  _219
REMARK   93  A    between atoms: _222  and  _224
REMARK   94  A    between atoms: _224  and  _225
REMARK   95  A    between atoms: _224  and  _227
REMARK   96  A    between atoms: _227  and  _228
REMARK   97  A    between atoms: _233  and  _235
REMARK   98  A    between atoms: _235  and  _236
REMARK   99  A    between atoms: _235  and  _238
REMARK  100  A    between atoms: _238  and  _239
REMARK  101  A    between atoms: _242  and  _244
REMARK  102  A    between atoms: _244  and  _245
REMARK  103  A    between atoms: _244  and  _247
REMARK  104  A    between atoms: _247  and  _248
REMARK  105  A    between atoms: _251  and  _253
REMARK  106  A    between atoms: _253  and  _254
REMARK  107  A    between atoms: _256  and  _258
REMARK  108  A    between atoms: _258  and  _259
REMARK  109  A    between atoms: _258  and  _261
REMARK  110  A    between atoms: _261  and  _262
REMARK  111  A    between atoms: _262  and  _263
REMARK  112  A    between atoms: _263  and  _264
REMARK  113  A    between atoms: _273  and  _275
REMARK  114  A    between atoms: _275  and  _276
REMARK  115  A    between atoms: _275  and  _278
REMARK  116  A    between atoms: _278  and  _279
REMARK  117  A    between atoms: _284  and  _286
REMARK  118  A    between atoms: _286  and  _287
REMARK  119  A    between atoms: _286  and  _289
REMARK  120  A    between atoms: _289  and  _290
REMARK  121  A    between atoms: _290  and  _291
REMARK  122  A    between atoms: _291  and  _292
REMARK  123  A    between atoms: _302  and  _303
REMARK  124  A    between atoms: _308  and  _310
REMARK  125  A    between atoms: _310  and  _311
REMARK  126  A    between atoms: _310  and  _313
REMARK  127  A    between atoms: _313  and  _314
REMARK  128  A    between atoms: _317  and  _319
REMARK  129  A    between atoms: _319  and  _320
REMARK  130  A    between atoms: _319  and  _322
REMARK  131  A    between atoms: _322  and  _323
REMARK  132  A    between atoms: _326  and  _328
REMARK  133  A    between atoms: _328  and  _329
REMARK  134  A    between atoms: _328  and  _331
REMARK  135  A    between atoms: _331  and  _332
REMARK  136  A    between atoms: _335  and  _337
REMARK  137  A    between atoms: _337  and  _338
REMARK  138  A    between atoms: _337  and  _340
REMARK  139  A    between atoms: _340  and  _341
REMARK  140  A    between atoms: _344  and  _346
REMARK  141  A    between atoms: _346  and  _347
REMARK  142  A    between atoms: _346  and  _349
REMARK  143  A    between atoms: _349  and  _350
REMARK  144  A    between atoms: _353  and  _355
REMARK  145  A    between atoms: _355  and  _356
REMARK  146  A    between atoms: _358  and  _360
REMARK  147  A    between atoms: _360  and  _361
REMARK  148  A    between atoms: _364  and  _366
REMARK  149  A    between atoms: _366  and  _367
REMARK  150  A    between atoms: _366  and  _369
REMARK  151  A    between atoms: _369  and  _370
REMARK  152  A    between atoms: _373  and  _375
REMARK  153  A    between atoms: _375  and  _376
REMARK  154  A    between atoms: _375  and  _378
REMARK  155  A    between atoms: _378  and  _379
REMARK  156  A    between atoms: _382  and  _384
REMARK  157  A    between atoms: _384  and  _385
REMARK  158  A    between atoms: _384  and  _387
REMARK  159  A    between atoms: _387  and  _388
REMARK  160  A    between atoms: _391  and  _393
REMARK  161  A    between atoms: _393  and  _394
REMARK  162  A    between atoms: _393  and  _396
REMARK  163  A    between atoms: _399  and  _401
REMARK  164  A    between atoms: _401  and  _402
REMARK  165  A    between atoms: _401  and  _404
REMARK  166  A    between atoms: _404  and  _405
REMARK  167  A    between atoms: _408  and  _410
REMARK  168  A    between atoms: _410  and  _411
REMARK  169  A    between atoms: _410  and  _413
REMARK  170  A    between atoms: _413  and  _414
REMARK  171  A    between atoms: _417  and  _419
REMARK  172  A    between atoms: _419  and  _420
REMARK  173  A    between atoms: _422  and  _424
REMARK  174  A    between atoms: _424  and  _425
REMARK  175  A    between atoms: _427  and  _429
REMARK  176  A    between atoms: _429  and  _430
REMARK  177  A    between atoms: _429  and  _432
REMARK  178  A    between atoms: _435  and  _437
REMARK  179  A    between atoms: _437  and  _438
REMARK  180  A    between atoms: _440  and  _442
REMARK  181  A    between atoms: _442  and  _443
REMARK  182  A    between atoms: _445  and  _447
REMARK  183  A    between atoms: _447  and  _448
REMARK  184  A    between atoms: _447  and  _450
REMARK  185  A    between atoms: _450  and  _451
REMARK  186  A    between atoms: _457  and  _459
REMARK  187  A    between atoms: _459  and  _460
REMARK  188  A    between atoms: _459  and  _462
REMARK  189  A    between atoms: _462  and  _463
REMARK  190  A    between atoms: _466  and  _468
REMARK  191  A    between atoms: _468  and  _469
REMARK  192  A    between atoms: _468  and  _471
REMARK  193  A    between atoms: _474  and  _476
REMARK  194  A    between atoms: _476  and  _477
REMARK  195  A    between atoms: _476  and  _479
REMARK  196  A    between atoms: _479  and  _480
REMARK  197  A    between atoms: _483  and  _485
REMARK  198  A    between atoms: _485  and  _486
REMARK  199  A    between atoms: _485  and  _488
REMARK  200  A    between atoms: _488  and  _489
REMARK  201  A    between atoms: _493  and  _494
REMARK  202  A    between atoms: _499  and  _501
REMARK  203  A    between atoms: _501  and  _502
REMARK  204  A    between atoms: _501  and  _504
REMARK  205  A    between atoms: _507  and  _509
REMARK  206  A    between atoms: _509  and  _510
REMARK  207  A    between atoms: _509  and  _512
REMARK  208  A    between atoms: _512  and  _513
REMARK  209  A    between atoms: _518  and  _520
REMARK  210  A    between atoms: _520  and  _521
REMARK  211  A    between atoms: _520  and  _523
REMARK  212  A    between atoms: _523  and  _524
REMARK  213  A    between atoms: _527  and  _529
REMARK  214  A    between atoms: _529  and  _530
REMARK  215  A    between atoms: _529  and  _532
REMARK  216  A    between atoms: _532  and  _533
REMARK  217  A    between atoms: _536  and  _538
REMARK  218  A    between atoms: _538  and  _539
REMARK  219  A    between atoms: _541  and  _543
REMARK  220  A    between atoms: _543  and  _544
REMARK  221  A    between atoms: _543  and  _546
REMARK  222  A    between atoms: _546  and  _547
REMARK  223  A    between atoms: _547  and  _548
REMARK  224  A    between atoms: _548  and  _549
REMARK                            x       y       z     vdW  Elec       q    Type
REMARK                         _______ _______ _______ _____ _____    ______ ____
ROOT
ATOM      1  O   HOH     1      -8.795  21.362  16.940  0.00  0.00    +0.000 OA
ENDROOT
TORSDOF 0
REMARK  Name = ../refined-set-2016/2o4l/2o4l_pocket.pdb
REMARK  224 active torsions:
REMARK  status: ('A' for Active; 'I' for Inactive)
REMARK    1  A    between atoms: _1  and  _3
REMARK    2  A    between atoms: _3  and  _4
REMARK    3  A    between atoms: _3  and  _6
REMARK    4  A    between atoms: _6  and  _7
REMARK    5  A    between atoms: _7  and  _8
REMARK    6  A    between atoms: _8  and  _9
REMARK    7  A    between atoms: _18  and  _20
REMARK    8  A    between atoms: _20  and  _21
REMARK    9  A    between atoms: _20  and  _23
REMARK   10  A    between atoms: _23  and  _24
REMARK   11  A    between atoms: _27  and  _29
REMARK   12  A    between atoms: _29  and  _30
REMARK   13  A    between atoms: _29  and  _32
REMARK   14  A    between atoms: _32  and  _33
REMARK   15  A    between atoms: _36  and  _38
REMARK   16  A    between atoms: _38  and  _39
REMARK   17  A    between atoms: _38  and  _41
REMARK   18  A    between atoms: _41  and  _42
REMARK   19  A    between atoms: _45  and  _47
REMARK   20  A    between atoms: _47  and  _48
REMARK   21  A    between atoms: _47  and  _50
REMARK   22  A    between atoms: _50  and  _51
REMARK   23  A    between atoms: _54  and  _56
REMARK   24  A    between atoms: _56  and  _57
REMARK   25  A    between atoms: _56  and  _59
REMARK   26  A    between atoms: _59  and  _60
REMARK   27  A    between atoms: _63  and  _65
REMARK   28  A    between atoms: _65  and  _66
REMARK   29  A    between atoms: _68  and  _70
REMARK   30  A    between atoms: _70  and  _71
REMARK   31  A    between atoms: _74  and  _76
REMARK   32  A    between atoms: _76  and  _77
REMARK   33  A    between atoms: _76  and  _79
REMARK   34  A    between atoms: _79  and  _80
REMARK   35  A    between atoms: _83  and  _85
REMARK   36  A    between atoms: _85  and  _86
REMARK   37  A    between atoms: _85  and  _88
REMARK   38  A    between atoms: _88  and  _89
REMARK   39  A    between atoms: _92  and  _94
REMARK   40  A    between atoms: _94  and  _95
REMARK   41  A    between atoms: _94  and  _97
REMARK   42  A    between atoms: _97  and  _98
REMARK   43  A    between atoms: _101  and  _103
REMARK   44  A    between atoms: _103  and  _104
REMARK   45  A    between atoms: _103  and  _106
REMARK   46  A    between atoms: _109  and  _111
REMARK   47  A    between atoms: _111  and  _112
REMARK   48  A    between atoms: _111  and  _114
REMARK   49  A    between atoms: _114  and  _115
REMARK   50  A    between atoms: _115  and  _116
REMARK   51  A    between atoms: _116  and  _117
REMARK   52  A    between atoms: _117  and  _118
REMARK   53  A    between atoms: _122  and  _124
REMARK   54  A    between atoms: _124  and  _125
REMARK   55  A    between atoms: _124  and  _127
REMARK   56  A    between atoms: _127  and  _128
REMARK   57  A    between atoms: _128  and  _129
REMARK   58  A    between atoms: _131  and  _133
REMARK   59  A    between atoms: _133  and  _134
REMARK   60  A    between atoms: _133  and  _136
REMARK   61  A    between atoms: _136  and  _137
REMARK   62  A    between atoms: _140  and  _142
REMARK   63  A    between atoms: _142  and  _143
REMARK   64  A    between atoms: _145  and  _147
REMARK   65  A    between atoms: _147  and  _148
REMARK   66  A    between atoms: _150  and  _152
REMARK   67  A    between atoms: _152  and  _153
REMARK   68  A    between atoms: _152  and  _155
REMARK   69  A    between atoms: _158  and  _160
REMARK   70  A    between atoms: _160  and  _161
REMARK   71  A    between atoms: _163  and  _165
REMARK   72  A    between atoms: _165  and  _166
REMARK   73  A    between atoms: _168  and  _170
REMARK   74  A    between atoms: _170  and  _171
REMARK   75  A    between atoms: _170  and  _173
REMARK   76  A    between atoms: _173  and  _174
REMARK   77  A    between atoms: _180  and  _182
REMARK   78  A    between atoms: _182  and  _183
REMARK   79  A    between atoms: _182  and  _185
REMARK   80  A    between atoms: _185  and  _186
REMARK   81  A    between atoms: _189  and  _191
REMARK   82  A    between atoms: _191  and  _192
REMARK   83  A    between atoms: _191  and  _194
REMARK   84  A    between atoms: _194  and  _195
REMARK   85  A    between atoms: _198  and  _200
REMARK   86  A    between atoms: _200  and  _201
REMARK   87  A    between atoms: _200  and  _203
REMARK   88  A    between atoms: _203  and  _204
REMARK   89  A    between atoms: _208  and  _209
REMARK   90  A    between atoms: _214  and  _216
REMARK   91  A    between atoms: _216  and  _217
REMARK   92  A    between atoms: _216  and  _219
REMARK   93  A    between atoms: _222  and  _224
REMARK   94  A    between atoms: _224  and  _225
REMARK   95  A    between atoms: _224  and  _227
REMARK   96  A    between atoms: _227  and  _228
REMARK   97  A    between atoms: _233  and  _235
REMARK   98  A    between atoms: _235  and  _236
REMARK   99  A    between atoms: _235  and  _238
REMARK  100  A    between atoms: _238  and  _239
REMARK  101  A    between atoms: _242  and  _244
REMARK  102  A    between atoms: _244  and  _245
REMARK  103  A    between atoms: _244  and  _247
REMARK  104  A    between atoms: _247  and  _248
REMARK  105  A    between atoms: _251  and  _253
REMARK  106  A    between atoms: _253  and  _254
REMARK  107  A    between atoms: _256  and  _258
REMARK  108  A    between atoms: _258  and  _259
REMARK  109  A    between atoms: _258  and  _261
REMARK  110  A    between atoms: _261  and  _262
REMARK  111  A    between atoms: _262  and  _263
REMARK  112  A    between atoms: _263  and  _264
REMARK  113  A    between atoms: _273  and  _275
REMARK  114  A    between atoms: _275  and  _276
REMARK  115  A    between atoms: _275  and  _278
REMARK  116  A    between atoms: _278  and  _279
REMARK  117  A    between atoms: _284  and  _286
REMARK  118  A    between atoms: _286  and  _287
REMARK  119  A    between atoms: _286  and  _289
REMARK  120  A    between atoms: _289  and  _290
REMARK  121  A    between atoms: _290  and  _291
REMARK  122  A    between atoms: _291  and  _292
REMARK  123  A    between atoms: _302  and  _303
REMARK  124  A    between atoms: _308  and  _310
REMARK  125  A    between atoms: _310  and  _311
REMARK  126  A    between atoms: _310  and  _313
REMARK  127  A    between atoms: _313  and  _314
REMARK  128  A    between atoms: _317  and  _319
REMARK  129  A    between atoms: _319  and  _320
REMARK  130  A    between atoms: _319  and  _322
REMARK  131  A    between atoms: _322  and  _323
REMARK  132  A    between atoms: _326  and  _328
REMARK  133  A    between atoms: _328  and  _329
REMARK  134  A    between atoms: _328  and  _331
REMARK  135  A    between atoms: _331  and  _332
REMARK  136  A    between atoms: _335  and  _337
REMARK  137  A    between atoms: _337  and  _338
REMARK  138  A    between atoms: _337  and  _340
REMARK  139  A    between atoms: _340  and  _341
REMARK  140  A    between atoms: _344  and  _346
REMARK  141  A    between atoms: _346  and  _347
REMARK  142  A    between atoms: _346  and  _349
REMARK  143  A    between atoms: _349  and  _350
REMARK  144  A    between atoms: _353  and  _355
REMARK  145  A    between atoms: _355  and  _356
REMARK  146  A    between atoms: _358  and  _360
REMARK  147  A    between atoms: _360  and  _361
REMARK  148  A    between atoms: _364  and  _366
REMARK  149  A    between atoms: _366  and  _367
REMARK  150  A    between atoms: _366  and  _369
REMARK  151  A    between atoms: _369  and  _370
REMARK  152  A    between atoms: _373  and  _375
REMARK  153  A    between atoms: _375  and  _376
REMARK  154  A    between atoms: _375  and  _378
REMARK  155  A    between atoms: _378  and  _379
REMARK  156  A    between atoms: _382  and  _384
REMARK  157  A    between atoms: _384  and  _385
REMARK  158  A    between atoms: _384  and  _387
REMARK  159  A    between atoms: _387  and  _388
REMARK  160  A    between atoms: _391  and  _393
REMARK  161  A    between atoms: _393  and  _394
REMARK  162  A    between atoms: _393  and  _396
REMARK  163  A    between atoms: _399  and  _401
REMARK  164  A    between atoms: _401  and  _402
REMARK  165  A    between atoms: _401  and  _404
REMARK  166  A    between atoms: _404  and  _405
REMARK  167  A    between atoms: _408  and  _410
REMARK  168  A    between atoms: _410  and  _411
REMARK  169  A    between atoms: _410  and  _413
REMARK  170  A    between atoms: _413  and  _414
REMARK  171  A    between atoms: _417  and  _419
REMARK  172  A    between atoms: _419  and  _420
REMARK  173  A    between atoms: _422  and  _424
REMARK  174  A    between atoms: _424  and  _425
REMARK  175  A    between atoms: _427  and  _429
REMARK  176  A    between atoms: _429  and  _430
REMARK  177  A    between atoms: _429  and  _432
REMARK  178  A    between atoms: _435  and  _437
REMARK  179  A    between atoms: _437  and  _438
REMARK  180  A    between atoms: _440  and  _442
REMARK  181  A    between atoms: _442  and  _443
REMARK  182  A    between atoms: _445  and  _447
REMARK  183  A    between atoms: _447  and  _448
REMARK  184  A    between atoms: _447  and  _450
REMARK  185  A    between atoms: _450  and  _451
REMARK  186  A    between atoms: _457  and  _459
REMARK  187  A    between atoms: _459  and  _460
REMARK  188  A    between atoms: _459  and  _462
REMARK  189  A    between atoms: _462  and  _463
REMARK  190  A    between atoms: _466  and  _468
REMARK  191  A    between atoms: _468  and  _469
REMARK  192  A    between atoms: _468  and  _471
REMARK  193  A    between atoms: _474  and  _476
REMARK  194  A    between atoms: _476  and  _477
REMARK  195  A    between atoms: _476  and  _479
REMARK  196  A    between atoms: _479  and  _480
REMARK  197  A    between atoms: _483  and  _485
REMARK  198  A    between atoms: _485  and  _486
REMARK  199  A    between atoms: _485  and  _488
REMARK  200  A    between atoms: _488  and  _489
REMARK  201  A    between atoms: _493  and  _494
REMARK  202  A    between atoms: _499  and  _501
REMARK  203  A    between atoms: _501  and  _502
REMARK  204  A    between atoms: _501  and  _504
REMARK  205  A    between atoms: _507  and  _509
REMARK  206  A    between atoms: _509  and  _510
REMARK  207  A    between atoms: _509  and  _512
REMARK  208  A    between atoms: _512  and  _513
REMARK  209  A    between atoms: _518  and  _520
REMARK  210  A    between atoms: _520  and  _521
REMARK  211  A    between atoms: _520  and  _523
REMARK  212  A    between atoms: _523  and  _524
REMARK  213  A    between atoms: _527  and  _529
REMARK  214  A    between atoms: _529  and  _530
REMARK  215  A    between atoms: _529  and  _532
REMARK  216  A    between atoms: _532  and  _533
REMARK  217  A    between atoms: _536  and  _538
REMARK  218  A    between atoms: _538  and  _539
REMARK  219  A    between atoms: _541  and  _543
REMARK  220  A    between atoms: _543  and  _544
REMARK  221  A    between atoms: _543  and  _546
REMARK  222  A    between atoms: _546  and  _547
REMARK  223  A    between atoms: _547  and  _548
REMARK  224  A    between atoms: _548  and  _549
REMARK                            x       y       z     vdW  Elec       q    Type
REMARK                         _______ _______ _______ _____ _____    ______ ____
ROOT
ATOM      1  O   HOH     1     -21.840  19.522  29.351  0.00  0.00    +0.000 OA
ENDROOT
TORSDOF 0
REMARK  Name = ../refined-set-2016/2o4l/2o4l_pocket.pdb
REMARK  224 active torsions:
REMARK  status: ('A' for Active; 'I' for Inactive)
REMARK    1  A    between atoms: _1  and  _3
REMARK    2  A    between atoms: _3  and  _4
REMARK    3  A    between atoms: _3  and  _6
REMARK    4  A    between atoms: _6  and  _7
REMARK    5  A    between atoms: _7  and  _8
REMARK    6  A    between atoms: _8  and  _9
REMARK    7  A    between atoms: _18  and  _20
REMARK    8  A    between atoms: _20  and  _21
REMARK    9  A    between atoms: _20  and  _23
REMARK   10  A    between atoms: _23  and  _24
REMARK   11  A    between atoms: _27  and  _29
REMARK   12  A    between atoms: _29  and  _30
REMARK   13  A    between atoms: _29  and  _32
REMARK   14  A    between atoms: _32  and  _33
REMARK   15  A    between atoms: _36  and  _38
REMARK   16  A    between atoms: _38  and  _39
REMARK   17  A    between atoms: _38  and  _41
REMARK   18  A    between atoms: _41  and  _42
REMARK   19  A    between atoms: _45  and  _47
REMARK   20  A    between atoms: _47  and  _48
REMARK   21  A    between atoms: _47  and  _50
REMARK   22  A    between atoms: _50  and  _51
REMARK   23  A    between atoms: _54  and  _56
REMARK   24  A    between atoms: _56  and  _57
REMARK   25  A    between atoms: _56  and  _59
REMARK   26  A    between atoms: _59  and  _60
REMARK   27  A    between atoms: _63  and  _65
REMARK   28  A    between atoms: _65  and  _66
REMARK   29  A    between atoms: _68  and  _70
REMARK   30  A    between atoms: _70  and  _71
REMARK   31  A    between atoms: _74  and  _76
REMARK   32  A    between atoms: _76  and  _77
REMARK   33  A    between atoms: _76  and  _79
REMARK   34  A    between atoms: _79  and  _80
REMARK   35  A    between atoms: _83  and  _85
REMARK   36  A    between atoms: _85  and  _86
REMARK   37  A    between atoms: _85  and  _88
REMARK   38  A    between atoms: _88  and  _89
REMARK   39  A    between atoms: _92  and  _94
REMARK   40  A    between atoms: _94  and  _95
REMARK   41  A    between atoms: _94  and  _97
REMARK   42  A    between atoms: _97  and  _98
REMARK   43  A    between atoms: _101  and  _103
REMARK   44  A    between atoms: _103  and  _104
REMARK   45  A    between atoms: _103  and  _106
REMARK   46  A    between atoms: _109  and  _111
REMARK   47  A    between atoms: _111  and  _112
REMARK   48  A    between atoms: _111  and  _114
REMARK   49  A    between atoms: _114  and  _115
REMARK   50  A    between atoms: _115  and  _116
REMARK   51  A    between atoms: _116  and  _117
REMARK   52  A    between atoms: _117  and  _118
REMARK   53  A    between atoms: _122  and  _124
REMARK   54  A    between atoms: _124  and  _125
REMARK   55  A    between atoms: _124  and  _127
REMARK   56  A    between atoms: _127  and  _128
REMARK   57  A    between atoms: _128  and  _129
REMARK   58  A    between atoms: _131  and  _133
REMARK   59  A    between atoms: _133  and  _134
REMARK   60  A    between atoms: _133  and  _136
REMARK   61  A    between atoms: _136  and  _137
REMARK   62  A    between atoms: _140  and  _142
REMARK   63  A    between atoms: _142  and  _143
REMARK   64  A    between atoms: _145  and  _147
REMARK   65  A    between atoms: _147  and  _148
REMARK   66  A    between atoms: _150  and  _152
REMARK   67  A    between atoms: _152  and  _153
REMARK   68  A    between atoms: _152  and  _155
REMARK   69  A    between atoms: _158  and  _160
REMARK   70  A    between atoms: _160  and  _161
REMARK   71  A    between atoms: _163  and  _165
REMARK   72  A    between atoms: _165  and  _166
REMARK   73  A    between atoms: _168  and  _170
REMARK   74  A    between atoms: _170  and  _171
REMARK   75  A    between atoms: _170  and  _173
REMARK   76  A    between atoms: _173  and  _174
REMARK   77  A    between atoms: _180  and  _182
REMARK   78  A    between atoms: _182  and  _183
REMARK   79  A    between atoms: _182  and  _185
REMARK   80  A    between atoms: _185  and  _186
REMARK   81  A    between atoms: _189  and  _191
REMARK   82  A    between atoms: _191  and  _192
REMARK   83  A    between atoms: _191  and  _194
REMARK   84  A    between atoms: _194  and  _195
REMARK   85  A    between atoms: _198  and  _200
REMARK   86  A    between atoms: _200  and  _201
REMARK   87  A    between atoms: _200  and  _203
REMARK   88  A    between atoms: _203  and  _204
REMARK   89  A    between atoms: _208  and  _209
REMARK   90  A    between atoms: _214  and  _216
REMARK   91  A    between atoms: _216  and  _217
REMARK   92  A    between atoms: _216  and  _219
REMARK   93  A    between atoms: _222  and  _224
REMARK   94  A    between atoms: _224  and  _225
REMARK   95  A    between atoms: _224  and  _227
REMARK   96  A    between atoms: _227  and  _228
REMARK   97  A    between atoms: _233  and  _235
REMARK   98  A    between atoms: _235  and  _236
REMARK   99  A    between atoms: _235  and  _238
REMARK  100  A    between atoms: _238  and  _239
REMARK  101  A    between atoms: _242  and  _244
REMARK  102  A    between atoms: _244  and  _245
REMARK  103  A    between atoms: _244  and  _247
REMARK  104  A    between atoms: _247  and  _248
REMARK  105  A    between atoms: _251  and  _253
REMARK  106  A    between atoms: _253  and  _254
REMARK  107  A    between atoms: _256  and  _258
REMARK  108  A    between atoms: _258  and  _259
REMARK  109  A    between atoms: _258  and  _261
REMARK  110  A    between atoms: _261  and  _262
REMARK  111  A    between atoms: _262  and  _263
REMARK  112  A    between atoms: _263  and  _264
REMARK  113  A    between atoms: _273  and  _275
REMARK  114  A    between atoms: _275  and  _276
REMARK  115  A    between atoms: _275  and  _278
REMARK  116  A    between atoms: _278  and  _279
REMARK  117  A    between atoms: _284  and  _286
REMARK  118  A    between atoms: _286  and  _287
REMARK  119  A    between atoms: _286  and  _289
REMARK  120  A    between atoms: _289  and  _290
REMARK  121  A    between atoms: _290  and  _291
REMARK  122  A    between atoms: _291  and  _292
REMARK  123  A    between atoms: _302  and  _303
REMARK  124  A    between atoms: _308  and  _310
REMARK  125  A    between atoms: _310  and  _311
REMARK  126  A    between atoms: _310  and  _313
REMARK  127  A    between atoms: _313  and  _314
REMARK  128  A    between atoms: _317  and  _319
REMARK  129  A    between atoms: _319  and  _320
REMARK  130  A    between atoms: _319  and  _322
REMARK  131  A    between atoms: _322  and  _323
REMARK  132  A    between atoms: _326  and  _328
REMARK  133  A    between atoms: _328  and  _329
REMARK  134  A    between atoms: _328  and  _331
REMARK  135  A    between atoms: _331  and  _332
REMARK  136  A    between atoms: _335  and  _337
REMARK  137  A    between atoms: _337  and  _338
REMARK  138  A    between atoms: _337  and  _340
REMARK  139  A    between atoms: _340  and  _341
REMARK  140  A    between atoms: _344  and  _346
REMARK  141  A    between atoms: _346  and  _347
REMARK  142  A    between atoms: _346  and  _349
REMARK  143  A    between atoms: _349  and  _350
REMARK  144  A    between atoms: _353  and  _355
REMARK  145  A    between atoms: _355  and  _356
REMARK  146  A    between atoms: _358  and  _360
REMARK  147  A    between atoms: _360  and  _361
REMARK  148  A    between atoms: _364  and  _366
REMARK  149  A    between atoms: _366  and  _367
REMARK  150  A    between atoms: _366  and  _369
REMARK  151  A    between atoms: _369  and  _370
REMARK  152  A    between atoms: _373  and  _375
REMARK  153  A    between atoms: _375  and  _376
REMARK  154  A    between atoms: _375  and  _378
REMARK  155  A    between atoms: _378  and  _379
REMARK  156  A    between atoms: _382  and  _384
REMARK  157  A    between atoms: _384  and  _385
REMARK  158  A    between atoms: _384  and  _387
REMARK  159  A    between atoms: _387  and  _388
REMARK  160  A    between atoms: _391  and  _393
REMARK  161  A    between atoms: _393  and  _394
REMARK  162  A    between atoms: _393  and  _396
REMARK  163  A    between atoms: _399  and  _401
REMARK  164  A    between atoms: _401  and  _402
REMARK  165  A    between atoms: _401  and  _404
REMARK  166  A    between atoms: _404  and  _405
REMARK  167  A    between atoms: _408  and  _410
REMARK  168  A    between atoms: _410  and  _411
REMARK  169  A    between atoms: _410  and  _413
REMARK  170  A    between atoms: _413  and  _414
REMARK  171  A    between atoms: _417  and  _419
REMARK  172  A    between atoms: _419  and  _420
REMARK  173  A    between atoms: _422  and  _424
REMARK  174  A    between atoms: _424  and  _425
REMARK  175  A    between atoms: _427  and  _429
REMARK  176  A    between atoms: _429  and  _430
REMARK  177  A    between atoms: _429  and  _432
REMARK  178  A    between atoms: _435  and  _437
REMARK  179  A    between atoms: _437  and  _438
REMARK  180  A    between atoms: _440  and  _442
REMARK  181  A    between atoms: _442  and  _443
REMARK  182  A    between atoms: _445  and  _447
REMARK  183  A    between atoms: _447  and  _448
REMARK  184  A    between atoms: _447  and  _450
REMARK  185  A    between atoms: _450  and  _451
REMARK  186  A    between atoms: _457  and  _459
REMARK  187  A    between atoms: _459  and  _460
REMARK  188  A    between atoms: _459  and  _462
REMARK  189  A    between atoms: _462  and  _463
REMARK  190  A    between atoms: _466  and  _468
REMARK  191  A    between atoms: _468  and  _469
REMARK  192  A    between atoms: _468  and  _471
REMARK  193  A    between atoms: _474  and  _476
REMARK  194  A    between atoms: _476  and  _477
REMARK  195  A    between atoms: _476  and  _479
REMARK  196  A    between atoms: _479  and  _480
REMARK  197  A    between atoms: _483  and  _485
REMARK  198  A    between atoms: _485  and  _486
REMARK  199  A    between atoms: _485  and  _488
REMARK  200  A    between atoms: _488  and  _489
REMARK  201  A    between atoms: _493  and  _494
REMARK  202  A    between atoms: _499  and  _501
REMARK  203  A    between atoms: _501  and  _502
REMARK  204  A    between atoms: _501  and  _504
REMARK  205  A    between atoms: _507  and  _509
REMARK  206  A    between atoms: _509  and  _510
REMARK  207  A    between atoms: _509  and  _512
REMARK  208  A    between atoms: _512  and  _513
REMARK  209  A    between atoms: _518  and  _520
REMARK  210  A    between atoms: _520  and  _521
REMARK  211  A    between atoms: _520  and  _523
REMARK  212  A    between atoms: _523  and  _524
REMARK  213  A    between atoms: _527  and  _529
REMARK  214  A    between atoms: _529  and  _530
REMARK  215  A    between atoms: _529  and  _532
REMARK  216  A    between atoms: _532  and  _533
REMARK  217  A    between atoms: _536  and  _538
REMARK  218  A    between atoms: _538  and  _539
REMARK  219  A    between atoms: _541  and  _543
REMARK  220  A    between atoms: _543  and  _544
REMARK  221  A    between atoms: _543  and  _546
REMARK  222  A    between atoms: _546  and  _547
REMARK  223  A    between atoms: _547  and  _548
REMARK  224  A    between atoms: _548  and  _549
REMARK                            x       y       z     vdW  Elec       q    Type
REMARK                         _______ _______ _______ _____ _____    ______ ____
ROOT
ATOM      1  O   HOH     1     -15.844  27.226  11.967  0.00  0.00    +0.000 OA
ENDROOT
TORSDOF 0
REMARK  Name = ../refined-set-2016/2o4l/2o4l_pocket.pdb
REMARK  224 active torsions:
REMARK  status: ('A' for Active; 'I' for Inactive)
REMARK    1  A    between atoms: _1  and  _3
REMARK    2  A    between atoms: _3  and  _4
REMARK    3  A    between atoms: _3  and  _6
REMARK    4  A    between atoms: _6  and  _7
REMARK    5  A    between atoms: _7  and  _8
REMARK    6  A    between atoms: _8  and  _9
REMARK    7  A    between atoms: _18  and  _20
REMARK    8  A    between atoms: _20  and  _21
REMARK    9  A    between atoms: _20  and  _23
REMARK   10  A    between atoms: _23  and  _24
REMARK   11  A    between atoms: _27  and  _29
REMARK   12  A    between atoms: _29  and  _30
REMARK   13  A    between atoms: _29  and  _32
REMARK   14  A    between atoms: _32  and  _33
REMARK   15  A    between atoms: _36  and  _38
REMARK   16  A    between atoms: _38  and  _39
REMARK   17  A    between atoms: _38  and  _41
REMARK   18  A    between atoms: _41  and  _42
REMARK   19  A    between atoms: _45  and  _47
REMARK   20  A    between atoms: _47  and  _48
REMARK   21  A    between atoms: _47  and  _50
REMARK   22  A    between atoms: _50  and  _51
REMARK   23  A    between atoms: _54  and  _56
REMARK   24  A    between atoms: _56  and  _57
REMARK   25  A    between atoms: _56  and  _59
REMARK   26  A    between atoms: _59  and  _60
REMARK   27  A    between atoms: _63  and  _65
REMARK   28  A    between atoms: _65  and  _66
REMARK   29  A    between atoms: _68  and  _70
REMARK   30  A    between atoms: _70  and  _71
REMARK   31  A    between atoms: _74  and  _76
REMARK   32  A    between atoms: _76  and  _77
REMARK   33  A    between atoms: _76  and  _79
REMARK   34  A    between atoms: _79  and  _80
REMARK   35  A    between atoms: _83  and  _85
REMARK   36  A    between atoms: _85  and  _86
REMARK   37  A    between atoms: _85  and  _88
REMARK   38  A    between atoms: _88  and  _89
REMARK   39  A    between atoms: _92  and  _94
REMARK   40  A    between atoms: _94  and  _95
REMARK   41  A    between atoms: _94  and  _97
REMARK   42  A    between atoms: _97  and  _98
REMARK   43  A    between atoms: _101  and  _103
REMARK   44  A    between atoms: _103  and  _104
REMARK   45  A    between atoms: _103  and  _106
REMARK   46  A    between atoms: _109  and  _111
REMARK   47  A    between atoms: _111  and  _112
REMARK   48  A    between atoms: _111  and  _114
REMARK   49  A    between atoms: _114  and  _115
REMARK   50  A    between atoms: _115  and  _116
REMARK   51  A    between atoms: _116  and  _117
REMARK   52  A    between atoms: _117  and  _118
REMARK   53  A    between atoms: _122  and  _124
REMARK   54  A    between atoms: _124  and  _125
REMARK   55  A    between atoms: _124  and  _127
REMARK   56  A    between atoms: _127  and  _128
REMARK   57  A    between atoms: _128  and  _129
REMARK   58  A    between atoms: _131  and  _133
REMARK   59  A    between atoms: _133  and  _134
REMARK   60  A    between atoms: _133  and  _136
REMARK   61  A    between atoms: _136  and  _137
REMARK   62  A    between atoms: _140  and  _142
REMARK   63  A    between atoms: _142  and  _143
REMARK   64  A    between atoms: _145  and  _147
REMARK   65  A    between atoms: _147  and  _148
REMARK   66  A    between atoms: _150  and  _152
REMARK   67  A    between atoms: _152  and  _153
REMARK   68  A    between atoms: _152  and  _155
REMARK   69  A    between atoms: _158  and  _160
REMARK   70  A    between atoms: _160  and  _161
REMARK   71  A    between atoms: _163  and  _165
REMARK   72  A    between atoms: _165  and  _166
REMARK   73  A    between atoms: _168  and  _170
REMARK   74  A    between atoms: _170  and  _171
REMARK   75  A    between atoms: _170  and  _173
REMARK   76  A    between atoms: _173  and  _174
REMARK   77  A    between atoms: _180  and  _182
REMARK   78  A    between atoms: _182  and  _183
REMARK   79  A    between atoms: _182  and  _185
REMARK   80  A    between atoms: _185  and  _186
REMARK   81  A    between atoms: _189  and  _191
REMARK   82  A    between atoms: _191  and  _192
REMARK   83  A    between atoms: _191  and  _194
REMARK   84  A    between atoms: _194  and  _195
REMARK   85  A    between atoms: _198  and  _200
REMARK   86  A    between atoms: _200  and  _201
REMARK   87  A    between atoms: _200  and  _203
REMARK   88  A    between atoms: _203  and  _204
REMARK   89  A    between atoms: _208  and  _209
REMARK   90  A    between atoms: _214  and  _216
REMARK   91  A    between atoms: _216  and  _217
REMARK   92  A    between atoms: _216  and  _219
REMARK   93  A    between atoms: _222  and  _224
REMARK   94  A    between atoms: _224  and  _225
REMARK   95  A    between atoms: _224  and  _227
REMARK   96  A    between atoms: _227  and  _228
REMARK   97  A    between atoms: _233  and  _235
REMARK   98  A    between atoms: _235  and  _236
REMARK   99  A    between atoms: _235  and  _238
REMARK  100  A    between atoms: _238  and  _239
REMARK  101  A    between atoms: _242  and  _244
REMARK  102  A    between atoms: _244  and  _245
REMARK  103  A    between atoms: _244  and  _247
REMARK  104  A    between atoms: _247  and  _248
REMARK  105  A    between atoms: _251  and  _253
REMARK  106  A    between atoms: _253  and  _254
REMARK  107  A    between atoms: _256  and  _258
REMARK  108  A    between atoms: _258  and  _259
REMARK  109  A    between atoms: _258  and  _261
REMARK  110  A    between atoms: _261  and  _262
REMARK  111  A    between atoms: _262  and  _263
REMARK  112  A    between atoms: _263  and  _264
REMARK  113  A    between atoms: _273  and  _275
REMARK  114  A    between atoms: _275  and  _276
REMARK  115  A    between atoms: _275  and  _278
REMARK  116  A    between atoms: _278  and  _279
REMARK  117  A    between atoms: _284  and  _286
REMARK  118  A    between atoms: _286  and  _287
REMARK  119  A    between atoms: _286  and  _289
REMARK  120  A    between atoms: _289  and  _290
REMARK  121  A    between atoms: _290  and  _291
REMARK  122  A    between atoms: _291  and  _292
REMARK  123  A    between atoms: _302  and  _303
REMARK  124  A    between atoms: _308  and  _310
REMARK  125  A    between atoms: _310  and  _311
REMARK  126  A    between atoms: _310  and  _313
REMARK  127  A    between atoms: _313  and  _314
REMARK  128  A    between atoms: _317  and  _319
REMARK  129  A    between atoms: _319  and  _320
REMARK  130  A    between atoms: _319  and  _322
REMARK  131  A    between atoms: _322  and  _323
REMARK  132  A    between atoms: _326  and  _328
REMARK  133  A    between atoms: _328  and  _329
REMARK  134  A    between atoms: _328  and  _331
REMARK  135  A    between atoms: _331  and  _332
REMARK  136  A    between atoms: _335  and  _337
REMARK  137  A    between atoms: _337  and  _338
REMARK  138  A    between atoms: _337  and  _340
REMARK  139  A    between atoms: _340  and  _341
REMARK  140  A    between atoms: _344  and  _346
REMARK  141  A    between atoms: _346  and  _347
REMARK  142  A    between atoms: _346  and  _349
REMARK  143  A    between atoms: _349  and  _350
REMARK  144  A    between atoms: _353  and  _355
REMARK  145  A    between atoms: _355  and  _356
REMARK  146  A    between atoms: _358  and  _360
REMARK  147  A    between atoms: _360  and  _361
REMARK  148  A    between atoms: _364  and  _366
REMARK  149  A    between atoms: _366  and  _367
REMARK  150  A    between atoms: _366  and  _369
REMARK  151  A    between atoms: _369  and  _370
REMARK  152  A    between atoms: _373  and  _375
REMARK  153  A    between atoms: _375  and  _376
REMARK  154  A    between atoms: _375  and  _378
REMARK  155  A    between atoms: _378  and  _379
REMARK  156  A    between atoms: _382  and  _384
REMARK  157  A    between atoms: _384  and  _385
REMARK  158  A    between atoms: _384  and  _387
REMARK  159  A    between atoms: _387  and  _388
REMARK  160  A    between atoms: _391  and  _393
REMARK  161  A    between atoms: _393  and  _394
REMARK  162  A    between atoms: _393  and  _396
REMARK  163  A    between atoms: _399  and  _401
REMARK  164  A    between atoms: _401  and  _402
REMARK  165  A    between atoms: _401  and  _404
REMARK  166  A    between atoms: _404  and  _405
REMARK  167  A    between atoms: _408  and  _410
REMARK  168  A    between atoms: _410  and  _411
REMARK  169  A    between atoms: _410  and  _413
REMARK  170  A    between atoms: _413  and  _414
REMARK  171  A    between atoms: _417  and  _419
REMARK  172  A    between atoms: _419  and  _420
REMARK  173  A    between atoms: _422  and  _424
REMARK  174  A    between atoms: _424  and  _425
REMARK  175  A    between atoms: _427  and  _429
REMARK  176  A    between atoms: _429  and  _430
REMARK  177  A    between atoms: _429  and  _432
REMARK  178  A    between atoms: _435  and  _437
REMARK  179  A    between atoms: _437  and  _438
REMARK  180  A    between atoms: _440  and  _442
REMARK  181  A    between atoms: _442  and  _443
REMARK  182  A    between atoms: _445  and  _447
REMARK  183  A    between atoms: _447  and  _448
REMARK  184  A    between atoms: _447  and  _450
REMARK  185  A    between atoms: _450  and  _451
REMARK  186  A    between atoms: _457  and  _459
REMARK  187  A    between atoms: _459  and  _460
REMARK  188  A    between atoms: _459  and  _462
REMARK  189  A    between atoms: _462  and  _463
REMARK  190  A    between atoms: _466  and  _468
REMARK  191  A    between atoms: _468  and  _469
REMARK  192  A    between atoms: _468  and  _471
REMARK  193  A    between atoms: _474  and  _476
REMARK  194  A    between atoms: _476  and  _477
REMARK  195  A    between atoms: _476  and  _479
REMARK  196  A    between atoms: _479  and  _480
REMARK  197  A    between atoms: _483  and  _485
REMARK  198  A    between atoms: _485  and  _486
REMARK  199  A    between atoms: _485  and  _488
REMARK  200  A    between atoms: _488  and  _489
REMARK  201  A    between atoms: _493  and  _494
REMARK  202  A    between atoms: _499  and  _501
REMARK  203  A    between atoms: _501  and  _502
REMARK  204  A    between atoms: _501  and  _504
REMARK  205  A    between atoms: _507  and  _509
REMARK  206  A    between atoms: _509  and  _510
REMARK  207  A    between atoms: _509  and  _512
REMARK  208  A    between atoms: _512  and  _513
REMARK  209  A    between atoms: _518  and  _520
REMARK  210  A    between atoms: _520  and  _521
REMARK  211  A    between atoms: _520  and  _523
REMARK  212  A    between atoms: _523  and  _524
REMARK  213  A    between atoms: _527  and  _529
REMARK  214  A    between atoms: _529  and  _530
REMARK  215  A    between atoms: _529  and  _532
REMARK  216  A    between atoms: _532  and  _533
REMARK  217  A    between atoms: _536  and  _538
REMARK  218  A    between atoms: _538  and  _539
REMARK  219  A    between atoms: _541  and  _543
REMARK  220  A    between atoms: _543  and  _544
REMARK  221  A    between atoms: _543  and  _546
REMARK  222  A    between atoms: _546  and  _547
REMARK  223  A    between atoms: _547  and  _548
REMARK  224  A    between atoms: _548  and  _549
REMARK                            x       y       z     vdW  Elec       q    Type
REMARK                         _______ _______ _______ _____ _____    ______ ____
ROOT
ATOM      1  O   HOH     1     -19.300  25.076   9.318  0.00  0.00    +0.000 OA
ENDROOT
TORSDOF 0
REMARK  Name = ../refined-set-2016/2o4l/2o4l_pocket.pdb
REMARK  224 active torsions:
REMARK  status: ('A' for Active; 'I' for Inactive)
REMARK    1  A    between atoms: _1  and  _3
REMARK    2  A    between atoms: _3  and  _4
REMARK    3  A    between atoms: _3  and  _6
REMARK    4  A    between atoms: _6  and  _7
REMARK    5  A    between atoms: _7  and  _8
REMARK    6  A    between atoms: _8  and  _9
REMARK    7  A    between atoms: _18  and  _20
REMARK    8  A    between atoms: _20  and  _21
REMARK    9  A    between atoms: _20  and  _23
REMARK   10  A    between atoms: _23  and  _24
REMARK   11  A    between atoms: _27  and  _29
REMARK   12  A    between atoms: _29  and  _30
REMARK   13  A    between atoms: _29  and  _32
REMARK   14  A    between atoms: _32  and  _33
REMARK   15  A    between atoms: _36  and  _38
REMARK   16  A    between atoms: _38  and  _39
REMARK   17  A    between atoms: _38  and  _41
REMARK   18  A    between atoms: _41  and  _42
REMARK   19  A    between atoms: _45  and  _47
REMARK   20  A    between atoms: _47  and  _48
REMARK   21  A    between atoms: _47  and  _50
REMARK   22  A    between atoms: _50  and  _51
REMARK   23  A    between atoms: _54  and  _56
REMARK   24  A    between atoms: _56  and  _57
REMARK   25  A    between atoms: _56  and  _59
REMARK   26  A    between atoms: _59  and  _60
REMARK   27  A    between atoms: _63  and  _65
REMARK   28  A    between atoms: _65  and  _66
REMARK   29  A    between atoms: _68  and  _70
REMARK   30  A    between atoms: _70  and  _71
REMARK   31  A    between atoms: _74  and  _76
REMARK   32  A    between atoms: _76  and  _77
REMARK   33  A    between atoms: _76  and  _79
REMARK   34  A    between atoms: _79  and  _80
REMARK   35  A    between atoms: _83  and  _85
REMARK   36  A    between atoms: _85  and  _86
REMARK   37  A    between atoms: _85  and  _88
REMARK   38  A    between atoms: _88  and  _89
REMARK   39  A    between atoms: _92  and  _94
REMARK   40  A    between atoms: _94  and  _95
REMARK   41  A    between atoms: _94  and  _97
REMARK   42  A    between atoms: _97  and  _98
REMARK   43  A    between atoms: _101  and  _103
REMARK   44  A    between atoms: _103  and  _104
REMARK   45  A    between atoms: _103  and  _106
REMARK   46  A    between atoms: _109  and  _111
REMARK   47  A    between atoms: _111  and  _112
REMARK   48  A    between atoms: _111  and  _114
REMARK   49  A    between atoms: _114  and  _115
REMARK   50  A    between atoms: _115  and  _116
REMARK   51  A    between atoms: _116  and  _117
REMARK   52  A    between atoms: _117  and  _118
REMARK   53  A    between atoms: _122  and  _124
REMARK   54  A    between atoms: _124  and  _125
REMARK   55  A    between atoms: _124  and  _127
REMARK   56  A    between atoms: _127  and  _128
REMARK   57  A    between atoms: _128  and  _129
REMARK   58  A    between atoms: _131  and  _133
REMARK   59  A    between atoms: _133  and  _134
REMARK   60  A    between atoms: _133  and  _136
REMARK   61  A    between atoms: _136  and  _137
REMARK   62  A    between atoms: _140  and  _142
REMARK   63  A    between atoms: _142  and  _143
REMARK   64  A    between atoms: _145  and  _147
REMARK   65  A    between atoms: _147  and  _148
REMARK   66  A    between atoms: _150  and  _152
REMARK   67  A    between atoms: _152  and  _153
REMARK   68  A    between atoms: _152  and  _155
REMARK   69  A    between atoms: _158  and  _160
REMARK   70  A    between atoms: _160  and  _161
REMARK   71  A    between atoms: _163  and  _165
REMARK   72  A    between atoms: _165  and  _166
REMARK   73  A    between atoms: _168  and  _170
REMARK   74  A    between atoms: _170  and  _171
REMARK   75  A    between atoms: _170  and  _173
REMARK   76  A    between atoms: _173  and  _174
REMARK   77  A    between atoms: _180  and  _182
REMARK   78  A    between atoms: _182  and  _183
REMARK   79  A    between atoms: _182  and  _185
REMARK   80  A    between atoms: _185  and  _186
REMARK   81  A    between atoms: _189  and  _191
REMARK   82  A    between atoms: _191  and  _192
REMARK   83  A    between atoms: _191  and  _194
REMARK   84  A    between atoms: _194  and  _195
REMARK   85  A    between atoms: _198  and  _200
REMARK   86  A    between atoms: _200  and  _201
REMARK   87  A    between atoms: _200  and  _203
REMARK   88  A    between atoms: _203  and  _204
REMARK   89  A    between atoms: _208  and  _209
REMARK   90  A    between atoms: _214  and  _216
REMARK   91  A    between atoms: _216  and  _217
REMARK   92  A    between atoms: _216  and  _219
REMARK   93  A    between atoms: _222  and  _224
REMARK   94  A    between atoms: _224  and  _225
REMARK   95  A    between atoms: _224  and  _227
REMARK   96  A    between atoms: _227  and  _228
REMARK   97  A    between atoms: _233  and  _235
REMARK   98  A    between atoms: _235  and  _236
REMARK   99  A    between atoms: _235  and  _238
REMARK  100  A    between atoms: _238  and  _239
REMARK  101  A    between atoms: _242  and  _244
REMARK  102  A    between atoms: _244  and  _245
REMARK  103  A    between atoms: _244  and  _247
REMARK  104  A    between atoms: _247  and  _248
REMARK  105  A    between atoms: _251  and  _253
REMARK  106  A    between atoms: _253  and  _254
REMARK  107  A    between atoms: _256  and  _258
REMARK  108  A    between atoms: _258  and  _259
REMARK  109  A    between atoms: _258  and  _261
REMARK  110  A    between atoms: _261  and  _262
REMARK  111  A    between atoms: _262  and  _263
REMARK  112  A    between atoms: _263  and  _264
REMARK  113  A    between atoms: _273  and  _275
REMARK  114  A    between atoms: _275  and  _276
REMARK  115  A    between atoms: _275  and  _278
REMARK  116  A    between atoms: _278  and  _279
REMARK  117  A    between atoms: _284  and  _286
REMARK  118  A    between atoms: _286  and  _287
REMARK  119  A    between atoms: _286  and  _289
REMARK  120  A    between atoms: _289  and  _290
REMARK  121  A    between atoms: _290  and  _291
REMARK  122  A    between atoms: _291  and  _292
REMARK  123  A    between atoms: _302  and  _303
REMARK  124  A    between atoms: _308  and  _310
REMARK  125  A    between atoms: _310  and  _311
REMARK  126  A    between atoms: _310  and  _313
REMARK  127  A    between atoms: _313  and  _314
REMARK  128  A    between atoms: _317  and  _319
REMARK  129  A    between atoms: _319  and  _320
REMARK  130  A    between atoms: _319  and  _322
REMARK  131  A    between atoms: _322  and  _323
REMARK  132  A    between atoms: _326  and  _328
REMARK  133  A    between atoms: _328  and  _329
REMARK  134  A    between atoms: _328  and  _331
REMARK  135  A    between atoms: _331  and  _332
REMARK  136  A    between atoms: _335  and  _337
REMARK  137  A    between atoms: _337  and  _338
REMARK  138  A    between atoms: _337  and  _340
REMARK  139  A    between atoms: _340  and  _341
REMARK  140  A    between atoms: _344  and  _346
REMARK  141  A    between atoms: _346  and  _347
REMARK  142  A    between atoms: _346  and  _349
REMARK  143  A    between atoms: _349  and  _350
REMARK  144  A    between atoms: _353  and  _355
REMARK  145  A    between atoms: _355  and  _356
REMARK  146  A    between atoms: _358  and  _360
REMARK  147  A    between atoms: _360  and  _361
REMARK  148  A    between atoms: _364  and  _366
REMARK  149  A    between atoms: _366  and  _367
REMARK  150  A    between atoms: _366  and  _369
REMARK  151  A    between atoms: _369  and  _370
REMARK  152  A    between atoms: _373  and  _375
REMARK  153  A    between atoms: _375  and  _376
REMARK  154  A    between atoms: _375  and  _378
REMARK  155  A    between atoms: _378  and  _379
REMARK  156  A    between atoms: _382  and  _384
REMARK  157  A    between atoms: _384  and  _385
REMARK  158  A    between atoms: _384  and  _387
REMARK  159  A    between atoms: _387  and  _388
REMARK  160  A    between atoms: _391  and  _393
REMARK  161  A    between atoms: _393  and  _394
REMARK  162  A    between atoms: _393  and  _396
REMARK  163  A    between atoms: _399  and  _401
REMARK  164  A    between atoms: _401  and  _402
REMARK  165  A    between atoms: _401  and  _404
REMARK  166  A    between atoms: _404  and  _405
REMARK  167  A    between atoms: _408  and  _410
REMARK  168  A    between atoms: _410  and  _411
REMARK  169  A    between atoms: _410  and  _413
REMARK  170  A    between atoms: _413  and  _414
REMARK  171  A    between atoms: _417  and  _419
REMARK  172  A    between atoms: _419  and  _420
REMARK  173  A    between atoms: _422  and  _424
REMARK  174  A    between atoms: _424  and  _425
REMARK  175  A    between atoms: _427  and  _429
REMARK  176  A    between atoms: _429  and  _430
REMARK  177  A    between atoms: _429  and  _432
REMARK  178  A    between atoms: _435  and  _437
REMARK  179  A    between atoms: _437  and  _438
REMARK  180  A    between atoms: _440  and  _442
REMARK  181  A    between atoms: _442  and  _443
REMARK  182  A    between atoms: _445  and  _447
REMARK  183  A    between atoms: _447  and  _448
REMARK  184  A    between atoms: _447  and  _450
REMARK  185  A    between atoms: _450  and  _451
REMARK  186  A    between atoms: _457  and  _459
REMARK  187  A    between atoms: _459  and  _460
REMARK  188  A    between atoms: _459  and  _462
REMARK  189  A    between atoms: _462  and  _463
REMARK  190  A    between atoms: _466  and  _468
REMARK  191  A    between atoms: _468  and  _469
REMARK  192  A    between atoms: _468  and  _471
REMARK  193  A    between atoms: _474  and  _476
REMARK  194  A    between atoms: _476  and  _477
REMARK  195  A    between atoms: _476  and  _479
REMARK  196  A    between atoms: _479  and  _480
REMARK  197  A    between atoms: _483  and  _485
REMARK  198  A    between atoms: _485  and  _486
REMARK  199  A    between atoms: _485  and  _488
REMARK  200  A    between atoms: _488  and  _489
REMARK  201  A    between atoms: _493  and  _494
REMARK  202  A    between atoms: _499  and  _501
REMARK  203  A    between atoms: _501  and  _502
REMARK  204  A    between atoms: _501  and  _504
REMARK  205  A    between atoms: _507  and  _509
REMARK  206  A    between atoms: _509  and  _510
REMARK  207  A    between atoms: _509  and  _512
REMARK  208  A    between atoms: _512  and  _513
REMARK  209  A    between atoms: _518  and  _520
REMARK  210  A    between atoms: _520  and  _521
REMARK  211  A    between atoms: _520  and  _523
REMARK  212  A    between atoms: _523  and  _524
REMARK  213  A    between atoms: _527  and  _529
REMARK  214  A    between atoms: _529  and  _530
REMARK  215  A    between atoms: _529  and  _532
REMARK  216  A    between atoms: _532  and  _533
REMARK  217  A    between atoms: _536  and  _538
REMARK  218  A    between atoms: _538  and  _539
REMARK  219  A    between atoms: _541  and  _543
REMARK  220  A    between atoms: _543  and  _544
REMARK  221  A    between atoms: _543  and  _546
REMARK  222  A    between atoms: _546  and  _547
REMARK  223  A    between atoms: _547  and  _548
REMARK  224  A    between atoms: _548  and  _549
REMARK                            x       y       z     vdW  Elec       q    Type
REMARK                         _______ _______ _______ _____ _____    ______ ____
ROOT
ATOM      1  O   HOH     1     -13.129  27.245  11.663  0.00  0.00    +0.000 OA
ENDROOT
TORSDOF 0
REMARK  Name = ../refined-set-2016/2o4l/2o4l_pocket.pdb
REMARK  224 active torsions:
REMARK  status: ('A' for Active; 'I' for Inactive)
REMARK    1  A    between atoms: _1  and  _3
REMARK    2  A    between atoms: _3  and  _4
REMARK    3  A    between atoms: _3  and  _6
REMARK    4  A    between atoms: _6  and  _7
REMARK    5  A    between atoms: _7  and  _8
REMARK    6  A    between atoms: _8  and  _9
REMARK    7  A    between atoms: _18  and  _20
REMARK    8  A    between atoms: _20  and  _21
REMARK    9  A    between atoms: _20  and  _23
REMARK   10  A    between atoms: _23  and  _24
REMARK   11  A    between atoms: _27  and  _29
REMARK   12  A    between atoms: _29  and  _30
REMARK   13  A    between atoms: _29  and  _32
REMARK   14  A    between atoms: _32  and  _33
REMARK   15  A    between atoms: _36  and  _38
REMARK   16  A    between atoms: _38  and  _39
REMARK   17  A    between atoms: _38  and  _41
REMARK   18  A    between atoms: _41  and  _42
REMARK   19  A    between atoms: _45  and  _47
REMARK   20  A    between atoms: _47  and  _48
REMARK   21  A    between atoms: _47  and  _50
REMARK   22  A    between atoms: _50  and  _51
REMARK   23  A    between atoms: _54  and  _56
REMARK   24  A    between atoms: _56  and  _57
REMARK   25  A    between atoms: _56  and  _59
REMARK   26  A    between atoms: _59  and  _60
REMARK   27  A    between atoms: _63  and  _65
REMARK   28  A    between atoms: _65  and  _66
REMARK   29  A    between atoms: _68  and  _70
REMARK   30  A    between atoms: _70  and  _71
REMARK   31  A    between atoms: _74  and  _76
REMARK   32  A    between atoms: _76  and  _77
REMARK   33  A    between atoms: _76  and  _79
REMARK   34  A    between atoms: _79  and  _80
REMARK   35  A    between atoms: _83  and  _85
REMARK   36  A    between atoms: _85  and  _86
REMARK   37  A    between atoms: _85  and  _88
REMARK   38  A    between atoms: _88  and  _89
REMARK   39  A    between atoms: _92  and  _94
REMARK   40  A    between atoms: _94  and  _95
REMARK   41  A    between atoms: _94  and  _97
REMARK   42  A    between atoms: _97  and  _98
REMARK   43  A    between atoms: _101  and  _103
REMARK   44  A    between atoms: _103  and  _104
REMARK   45  A    between atoms: _103  and  _106
REMARK   46  A    between atoms: _109  and  _111
REMARK   47  A    between atoms: _111  and  _112
REMARK   48  A    between atoms: _111  and  _114
REMARK   49  A    between atoms: _114  and  _115
REMARK   50  A    between atoms: _115  and  _116
REMARK   51  A    between atoms: _116  and  _117
REMARK   52  A    between atoms: _117  and  _118
REMARK   53  A    between atoms: _122  and  _124
REMARK   54  A    between atoms: _124  and  _125
REMARK   55  A    between atoms: _124  and  _127
REMARK   56  A    between atoms: _127  and  _128
REMARK   57  A    between atoms: _128  and  _129
REMARK   58  A    between atoms: _131  and  _133
REMARK   59  A    between atoms: _133  and  _134
REMARK   60  A    between atoms: _133  and  _136
REMARK   61  A    between atoms: _136  and  _137
REMARK   62  A    between atoms: _140  and  _142
REMARK   63  A    between atoms: _142  and  _143
REMARK   64  A    between atoms: _145  and  _147
REMARK   65  A    between atoms: _147  and  _148
REMARK   66  A    between atoms: _150  and  _152
REMARK   67  A    between atoms: _152  and  _153
REMARK   68  A    between atoms: _152  and  _155
REMARK   69  A    between atoms: _158  and  _160
REMARK   70  A    between atoms: _160  and  _161
REMARK   71  A    between atoms: _163  and  _165
REMARK   72  A    between atoms: _165  and  _166
REMARK   73  A    between atoms: _168  and  _170
REMARK   74  A    between atoms: _170  and  _171
REMARK   75  A    between atoms: _170  and  _173
REMARK   76  A    between atoms: _173  and  _174
REMARK   77  A    between atoms: _180  and  _182
REMARK   78  A    between atoms: _182  and  _183
REMARK   79  A    between atoms: _182  and  _185
REMARK   80  A    between atoms: _185  and  _186
REMARK   81  A    between atoms: _189  and  _191
REMARK   82  A    between atoms: _191  and  _192
REMARK   83  A    between atoms: _191  and  _194
REMARK   84  A    between atoms: _194  and  _195
REMARK   85  A    between atoms: _198  and  _200
REMARK   86  A    between atoms: _200  and  _201
REMARK   87  A    between atoms: _200  and  _203
REMARK   88  A    between atoms: _203  and  _204
REMARK   89  A    between atoms: _208  and  _209
REMARK   90  A    between atoms: _214  and  _216
REMARK   91  A    between atoms: _216  and  _217
REMARK   92  A    between atoms: _216  and  _219
REMARK   93  A    between atoms: _222  and  _224
REMARK   94  A    between atoms: _224  and  _225
REMARK   95  A    between atoms: _224  and  _227
REMARK   96  A    between atoms: _227  and  _228
REMARK   97  A    between atoms: _233  and  _235
REMARK   98  A    between atoms: _235  and  _236
REMARK   99  A    between atoms: _235  and  _238
REMARK  100  A    between atoms: _238  and  _239
REMARK  101  A    between atoms: _242  and  _244
REMARK  102  A    between atoms: _244  and  _245
REMARK  103  A    between atoms: _244  and  _247
REMARK  104  A    between atoms: _247  and  _248
REMARK  105  A    between atoms: _251  and  _253
REMARK  106  A    between atoms: _253  and  _254
REMARK  107  A    between atoms: _256  and  _258
REMARK  108  A    between atoms: _258  and  _259
REMARK  109  A    between atoms: _258  and  _261
REMARK  110  A    between atoms: _261  and  _262
REMARK  111  A    between atoms: _262  and  _263
REMARK  112  A    between atoms: _263  and  _264
REMARK  113  A    between atoms: _273  and  _275
REMARK  114  A    between atoms: _275  and  _276
REMARK  115  A    between atoms: _275  and  _278
REMARK  116  A    between atoms: _278  and  _279
REMARK  117  A    between atoms: _284  and  _286
REMARK  118  A    between atoms: _286  and  _287
REMARK  119  A    between atoms: _286  and  _289
REMARK  120  A    between atoms: _289  and  _290
REMARK  121  A    between atoms: _290  and  _291
REMARK  122  A    between atoms: _291  and  _292
REMARK  123  A    between atoms: _302  and  _303
REMARK  124  A    between atoms: _308  and  _310
REMARK  125  A    between atoms: _310  and  _311
REMARK  126  A    between atoms: _310  and  _313
REMARK  127  A    between atoms: _313  and  _314
REMARK  128  A    between atoms: _317  and  _319
REMARK  129  A    between atoms: _319  and  _320
REMARK  130  A    between atoms: _319  and  _322
REMARK  131  A    between atoms: _322  and  _323
REMARK  132  A    between atoms: _326  and  _328
REMARK  133  A    between atoms: _328  and  _329
REMARK  134  A    between atoms: _328  and  _331
REMARK  135  A    between atoms: _331  and  _332
REMARK  136  A    between atoms: _335  and  _337
REMARK  137  A    between atoms: _337  and  _338
REMARK  138  A    between atoms: _337  and  _340
REMARK  139  A    between atoms: _340  and  _341
REMARK  140  A    between atoms: _344  and  _346
REMARK  141  A    between atoms: _346  and  _347
REMARK  142  A    between atoms: _346  and  _349
REMARK  143  A    between atoms: _349  and  _350
REMARK  144  A    between atoms: _353  and  _355
REMARK  145  A    between atoms: _355  and  _356
REMARK  146  A    between atoms: _358  and  _360
REMARK  147  A    between atoms: _360  and  _361
REMARK  148  A    between atoms: _364  and  _366
REMARK  149  A    between atoms: _366  and  _367
REMARK  150  A    between atoms: _366  and  _369
REMARK  151  A    between atoms: _369  and  _370
REMARK  152  A    between atoms: _373  and  _375
REMARK  153  A    between atoms: _375  and  _376
REMARK  154  A    between atoms: _375  and  _378
REMARK  155  A    between atoms: _378  and  _379
REMARK  156  A    between atoms: _382  and  _384
REMARK  157  A    between atoms: _384  and  _385
REMARK  158  A    between atoms: _384  and  _387
REMARK  159  A    between atoms: _387  and  _388
REMARK  160  A    between atoms: _391  and  _393
REMARK  161  A    between atoms: _393  and  _394
REMARK  162  A    between atoms: _393  and  _396
REMARK  163  A    between atoms: _399  and  _401
REMARK  164  A    between atoms: _401  and  _402
REMARK  165  A    between atoms: _401  and  _404
REMARK  166  A    between atoms: _404  and  _405
REMARK  167  A    between atoms: _408  and  _410
REMARK  168  A    between atoms: _410  and  _411
REMARK  169  A    between atoms: _410  and  _413
REMARK  170  A    between atoms: _413  and  _414
REMARK  171  A    between atoms: _417  and  _419
REMARK  172  A    between atoms: _419  and  _420
REMARK  173  A    between atoms: _422  and  _424
REMARK  174  A    between atoms: _424  and  _425
REMARK  175  A    between atoms: _427  and  _429
REMARK  176  A    between atoms: _429  and  _430
REMARK  177  A    between atoms: _429  and  _432
REMARK  178  A    between atoms: _435  and  _437
REMARK  179  A    between atoms: _437  and  _438
REMARK  180  A    between atoms: _440  and  _442
REMARK  181  A    between atoms: _442  and  _443
REMARK  182  A    between atoms: _445  and  _447
REMARK  183  A    between atoms: _447  and  _448
REMARK  184  A    between atoms: _447  and  _450
REMARK  185  A    between atoms: _450  and  _451
REMARK  186  A    between atoms: _457  and  _459
REMARK  187  A    between atoms: _459  and  _460
REMARK  188  A    between atoms: _459  and  _462
REMARK  189  A    between atoms: _462  and  _463
REMARK  190  A    between atoms: _466  and  _468
REMARK  191  A    between atoms: _468  and  _469
REMARK  192  A    between atoms: _468  and  _471
REMARK  193  A    between atoms: _474  and  _476
REMARK  194  A    between atoms: _476  and  _477
REMARK  195  A    between atoms: _476  and  _479
REMARK  196  A    between atoms: _479  and  _480
REMARK  197  A    between atoms: _483  and  _485
REMARK  198  A    between atoms: _485  and  _486
REMARK  199  A    between atoms: _485  and  _488
REMARK  200  A    between atoms: _488  and  _489
REMARK  201  A    between atoms: _493  and  _494
REMARK  202  A    between atoms: _499  and  _501
REMARK  203  A    between atoms: _501  and  _502
REMARK  204  A    between atoms: _501  and  _504
REMARK  205  A    between atoms: _507  and  _509
REMARK  206  A    between atoms: _509  and  _510
REMARK  207  A    between atoms: _509  and  _512
REMARK  208  A    between atoms: _512  and  _513
REMARK  209  A    between atoms: _518  and  _520
REMARK  210  A    between atoms: _520  and  _521
REMARK  211  A    between atoms: _520  and  _523
REMARK  212  A    between atoms: _523  and  _524
REMARK  213  A    between atoms: _527  and  _529
REMARK  214  A    between atoms: _529  and  _530
REMARK  215  A    between atoms: _529  and  _532
REMARK  216  A    between atoms: _532  and  _533
REMARK  217  A    between atoms: _536  and  _538
REMARK  218  A    between atoms: _538  and  _539
REMARK  219  A    between atoms: _541  and  _543
REMARK  220  A    between atoms: _543  and  _544
REMARK  221  A    between atoms: _543  and  _546
REMARK  222  A    between atoms: _546  and  _547
REMARK  223  A    between atoms: _547  and  _548
REMARK  224  A    between atoms: _548  and  _549
REMARK                            x       y       z     vdW  Elec       q    Type
REMARK                         _______ _______ _______ _____ _____    ______ ____
ROOT
ATOM      1  O   HOH     1     -23.702  15.268  26.190  0.00  0.00    +0.000 OA
ENDROOT
TORSDOF 0
REMARK  Name = ../refined-set-2016/2o4l/2o4l_pocket.pdb
REMARK  224 active torsions:
REMARK  status: ('A' for Active; 'I' for Inactive)
REMARK    1  A    between atoms: _1  and  _3
REMARK    2  A    between atoms: _3  and  _4
REMARK    3  A    between atoms: _3  and  _6
REMARK    4  A    between atoms: _6  and  _7
REMARK    5  A    between atoms: _7  and  _8
REMARK    6  A    between atoms: _8  and  _9
REMARK    7  A    between atoms: _18  and  _20
REMARK    8  A    between atoms: _20  and  _21
REMARK    9  A    between atoms: _20  and  _23
REMARK   10  A    between atoms: _23  and  _24
REMARK   11  A    between atoms: _27  and  _29
REMARK   12  A    between atoms: _29  and  _30
REMARK   13  A    between atoms: _29  and  _32
REMARK   14  A    between atoms: _32  and  _33
REMARK   15  A    between atoms: _36  and  _38
REMARK   16  A    between atoms: _38  and  _39
REMARK   17  A    between atoms: _38  and  _41
REMARK   18  A    between atoms: _41  and  _42
REMARK   19  A    between atoms: _45  and  _47
REMARK   20  A    between atoms: _47  and  _48
REMARK   21  A    between atoms: _47  and  _50
REMARK   22  A    between atoms: _50  and  _51
REMARK   23  A    between atoms: _54  and  _56
REMARK   24  A    between atoms: _56  and  _57
REMARK   25  A    between atoms: _56  and  _59
REMARK   26  A    between atoms: _59  and  _60
REMARK   27  A    between atoms: _63  and  _65
REMARK   28  A    between atoms: _65  and  _66
REMARK   29  A    between atoms: _68  and  _70
REMARK   30  A    between atoms: _70  and  _71
REMARK   31  A    between atoms: _74  and  _76
REMARK   32  A    between atoms: _76  and  _77
REMARK   33  A    between atoms: _76  and  _79
REMARK   34  A    between atoms: _79  and  _80
REMARK   35  A    between atoms: _83  and  _85
REMARK   36  A    between atoms: _85  and  _86
REMARK   37  A    between atoms: _85  and  _88
REMARK   38  A    between atoms: _88  and  _89
REMARK   39  A    between atoms: _92  and  _94
REMARK   40  A    between atoms: _94  and  _95
REMARK   41  A    between atoms: _94  and  _97
REMARK   42  A    between atoms: _97  and  _98
REMARK   43  A    between atoms: _101  and  _103
REMARK   44  A    between atoms: _103  and  _104
REMARK   45  A    between atoms: _103  and  _106
REMARK   46  A    between atoms: _109  and  _111
REMARK   47  A    between atoms: _111  and  _112
REMARK   48  A    between atoms: _111  and  _114
REMARK   49  A    between atoms: _114  and  _115
REMARK   50  A    between atoms: _115  and  _116
REMARK   51  A    between atoms: _116  and  _117
REMARK   52  A    between atoms: _117  and  _118
REMARK   53  A    between atoms: _122  and  _124
REMARK   54  A    between atoms: _124  and  _125
REMARK   55  A    between atoms: _124  and  _127
REMARK   56  A    between atoms: _127  and  _128
REMARK   57  A    between atoms: _128  and  _129
REMARK   58  A    between atoms: _131  and  _133
REMARK   59  A    between atoms: _133  and  _134
REMARK   60  A    between atoms: _133  and  _136
REMARK   61  A    between atoms: _136  and  _137
REMARK   62  A    between atoms: _140  and  _142
REMARK   63  A    between atoms: _142  and  _143
REMARK   64  A    between atoms: _145  and  _147
REMARK   65  A    between atoms: _147  and  _148
REMARK   66  A    between atoms: _150  and  _152
REMARK   67  A    between atoms: _152  and  _153
REMARK   68  A    between atoms: _152  and  _155
REMARK   69  A    between atoms: _158  and  _160
REMARK   70  A    between atoms: _160  and  _161
REMARK   71  A    between atoms: _163  and  _165
REMARK   72  A    between atoms: _165  and  _166
REMARK   73  A    between atoms: _168  and  _170
REMARK   74  A    between atoms: _170  and  _171
REMARK   75  A    between atoms: _170  and  _173
REMARK   76  A    between atoms: _173  and  _174
REMARK   77  A    between atoms: _180  and  _182
REMARK   78  A    between atoms: _182  and  _183
REMARK   79  A    between atoms: _182  and  _185
REMARK   80  A    between atoms: _185  and  _186
REMARK   81  A    between atoms: _189  and  _191
REMARK   82  A    between atoms: _191  and  _192
REMARK   83  A    between atoms: _191  and  _194
REMARK   84  A    between atoms: _194  and  _195
REMARK   85  A    between atoms: _198  and  _200
REMARK   86  A    between atoms: _200  and  _201
REMARK   87  A    between atoms: _200  and  _203
REMARK   88  A    between atoms: _203  and  _204
REMARK   89  A    between atoms: _208  and  _209
REMARK   90  A    between atoms: _214  and  _216
REMARK   91  A    between atoms: _216  and  _217
REMARK   92  A    between atoms: _216  and  _219
REMARK   93  A    between atoms: _222  and  _224
REMARK   94  A    between atoms: _224  and  _225
REMARK   95  A    between atoms: _224  and  _227
REMARK   96  A    between atoms: _227  and  _228
REMARK   97  A    between atoms: _233  and  _235
REMARK   98  A    between atoms: _235  and  _236
REMARK   99  A    between atoms: _235  and  _238
REMARK  100  A    between atoms: _238  and  _239
REMARK  101  A    between atoms: _242  and  _244
REMARK  102  A    between atoms: _244  and  _245
REMARK  103  A    between atoms: _244  and  _247
REMARK  104  A    between atoms: _247  and  _248
REMARK  105  A    between atoms: _251  and  _253
REMARK  106  A    between atoms: _253  and  _254
REMARK  107  A    between atoms: _256  and  _258
REMARK  108  A    between atoms: _258  and  _259
REMARK  109  A    between atoms: _258  and  _261
REMARK  110  A    between atoms: _261  and  _262
REMARK  111  A    between atoms: _262  and  _263
REMARK  112  A    between atoms: _263  and  _264
REMARK  113  A    between atoms: _273  and  _275
REMARK  114  A    between atoms: _275  and  _276
REMARK  115  A    between atoms: _275  and  _278
REMARK  116  A    between atoms: _278  and  _279
REMARK  117  A    between atoms: _284  and  _286
REMARK  118  A    between atoms: _286  and  _287
REMARK  119  A    between atoms: _286  and  _289
REMARK  120  A    between atoms: _289  and  _290
REMARK  121  A    between atoms: _290  and  _291
REMARK  122  A    between atoms: _291  and  _292
REMARK  123  A    between atoms: _302  and  _303
REMARK  124  A    between atoms: _308  and  _310
REMARK  125  A    between atoms: _310  and  _311
REMARK  126  A    between atoms: _310  and  _313
REMARK  127  A    between atoms: _313  and  _314
REMARK  128  A    between atoms: _317  and  _319
REMARK  129  A    between atoms: _319  and  _320
REMARK  130  A    between atoms: _319  and  _322
REMARK  131  A    between atoms: _322  and  _323
REMARK  132  A    between atoms: _326  and  _328
REMARK  133  A    between atoms: _328  and  _329
REMARK  134  A    between atoms: _328  and  _331
REMARK  135  A    between atoms: _331  and  _332
REMARK  136  A    between atoms: _335  and  _337
REMARK  137  A    between atoms: _337  and  _338
REMARK  138  A    between atoms: _337  and  _340
REMARK  139  A    between atoms: _340  and  _341
REMARK  140  A    between atoms: _344  and  _346
REMARK  141  A    between atoms: _346  and  _347
REMARK  142  A    between atoms: _346  and  _349
REMARK  143  A    between atoms: _349  and  _350
REMARK  144  A    between atoms: _353  and  _355
REMARK  145  A    between atoms: _355  and  _356
REMARK  146  A    between atoms: _358  and  _360
REMARK  147  A    between atoms: _360  and  _361
REMARK  148  A    between atoms: _364  and  _366
REMARK  149  A    between atoms: _366  and  _367
REMARK  150  A    between atoms: _366  and  _369
REMARK  151  A    between atoms: _369  and  _370
REMARK  152  A    between atoms: _373  and  _375
REMARK  153  A    between atoms: _375  and  _376
REMARK  154  A    between atoms: _375  and  _378
REMARK  155  A    between atoms: _378  and  _379
REMARK  156  A    between atoms: _382  and  _384
REMARK  157  A    between atoms: _384  and  _385
REMARK  158  A    between atoms: _384  and  _387
REMARK  159  A    between atoms: _387  and  _388
REMARK  160  A    between atoms: _391  and  _393
REMARK  161  A    between atoms: _393  and  _394
REMARK  162  A    between atoms: _393  and  _396
REMARK  163  A    between atoms: _399  and  _401
REMARK  164  A    between atoms: _401  and  _402
REMARK  165  A    between atoms: _401  and  _404
REMARK  166  A    between atoms: _404  and  _405
REMARK  167  A    between atoms: _408  and  _410
REMARK  168  A    between atoms: _410  and  _411
REMARK  169  A    between atoms: _410  and  _413
REMARK  170  A    between atoms: _413  and  _414
REMARK  171  A    between atoms: _417  and  _419
REMARK  172  A    between atoms: _419  and  _420
REMARK  173  A    between atoms: _422  and  _424
REMARK  174  A    between atoms: _424  and  _425
REMARK  175  A    between atoms: _427  and  _429
REMARK  176  A    between atoms: _429  and  _430
REMARK  177  A    between atoms: _429  and  _432
REMARK  178  A    between atoms: _435  and  _437
REMARK  179  A    between atoms: _437  and  _438
REMARK  180  A    between atoms: _440  and  _442
REMARK  181  A    between atoms: _442  and  _443
REMARK  182  A    between atoms: _445  and  _447
REMARK  183  A    between atoms: _447  and  _448
REMARK  184  A    between atoms: _447  and  _450
REMARK  185  A    between atoms: _450  and  _451
REMARK  186  A    between atoms: _457  and  _459
REMARK  187  A    between atoms: _459  and  _460
REMARK  188  A    between atoms: _459  and  _462
REMARK  189  A    between atoms: _462  and  _463
REMARK  190  A    between atoms: _466  and  _468
REMARK  191  A    between atoms: _468  and  _469
REMARK  192  A    between atoms: _468  and  _471
REMARK  193  A    between atoms: _474  and  _476
REMARK  194  A    between atoms: _476  and  _477
REMARK  195  A    between atoms: _476  and  _479
REMARK  196  A    between atoms: _479  and  _480
REMARK  197  A    between atoms: _483  and  _485
REMARK  198  A    between atoms: _485  and  _486
REMARK  199  A    between atoms: _485  and  _488
REMARK  200  A    between atoms: _488  and  _489
REMARK  201  A    between atoms: _493  and  _494
REMARK  202  A    between atoms: _499  and  _501
REMARK  203  A    between atoms: _501  and  _502
REMARK  204  A    between atoms: _501  and  _504
REMARK  205  A    between atoms: _507  and  _509
REMARK  206  A    between atoms: _509  and  _510
REMARK  207  A    between atoms: _509  and  _512
REMARK  208  A    between atoms: _512  and  _513
REMARK  209  A    between atoms: _518  and  _520
REMARK  210  A    between atoms: _520  and  _521
REMARK  211  A    between atoms: _520  and  _523
REMARK  212  A    between atoms: _523  and  _524
REMARK  213  A    between atoms: _527  and  _529
REMARK  214  A    between atoms: _529  and  _530
REMARK  215  A    between atoms: _529  and  _532
REMARK  216  A    between atoms: _532  and  _533
REMARK  217  A    between atoms: _536  and  _538
REMARK  218  A    between atoms: _538  and  _539
REMARK  219  A    between atoms: _541  and  _543
REMARK  220  A    between atoms: _543  and  _544
REMARK  221  A    between atoms: _543  and  _546
REMARK  222  A    between atoms: _546  and  _547
REMARK  223  A    between atoms: _547  and  _548
REMARK  224  A    between atoms: _548  and  _549
REMARK                            x       y       z     vdW  Elec       q    Type
REMARK                         _______ _______ _______ _____ _____    ______ ____
ROOT
ATOM      1  O   HOH     1     -23.139  17.006  28.594  0.00  0.00    +0.000 OA
ENDROOT
TORSDOF 0
REMARK  Name = ../refined-set-2016/2o4l/2o4l_pocket.pdb
REMARK  224 active torsions:
REMARK  status: ('A' for Active; 'I' for Inactive)
REMARK    1  A    between atoms: _1  and  _3
REMARK    2  A    between atoms: _3  and  _4
REMARK    3  A    between atoms: _3  and  _6
REMARK    4  A    between atoms: _6  and  _7
REMARK    5  A    between atoms: _7  and  _8
REMARK    6  A    between atoms: _8  and  _9
REMARK    7  A    between atoms: _18  and  _20
REMARK    8  A    between atoms: _20  and  _21
REMARK    9  A    between atoms: _20  and  _23
REMARK   10  A    between atoms: _23  and  _24
REMARK   11  A    between atoms: _27  and  _29
REMARK   12  A    between atoms: _29  and  _30
REMARK   13  A    between atoms: _29  and  _32
REMARK   14  A    between atoms: _32  and  _33
REMARK   15  A    between atoms: _36  and  _38
REMARK   16  A    between atoms: _38  and  _39
REMARK   17  A    between atoms: _38  and  _41
REMARK   18  A    between atoms: _41  and  _42
REMARK   19  A    between atoms: _45  and  _47
REMARK   20  A    between atoms: _47  and  _48
REMARK   21  A    between atoms: _47  and  _50
REMARK   22  A    between atoms: _50  and  _51
REMARK   23  A    between atoms: _54  and  _56
REMARK   24  A    between atoms: _56  and  _57
REMARK   25  A    between atoms: _56  and  _59
REMARK   26  A    between atoms: _59  and  _60
REMARK   27  A    between atoms: _63  and  _65
REMARK   28  A    between atoms: _65  and  _66
REMARK   29  A    between atoms: _68  and  _70
REMARK   30  A    between atoms: _70  and  _71
REMARK   31  A    between atoms: _74  and  _76
REMARK   32  A    between atoms: _76  and  _77
REMARK   33  A    between atoms: _76  and  _79
REMARK   34  A    between atoms: _79  and  _80
REMARK   35  A    between atoms: _83  and  _85
REMARK   36  A    between atoms: _85  and  _86
REMARK   37  A    between atoms: _85  and  _88
REMARK   38  A    between atoms: _88  and  _89
REMARK   39  A    between atoms: _92  and  _94
REMARK   40  A    between atoms: _94  and  _95
REMARK   41  A    between atoms: _94  and  _97
REMARK   42  A    between atoms: _97  and  _98
REMARK   43  A    between atoms: _101  and  _103
REMARK   44  A    between atoms: _103  and  _104
REMARK   45  A    between atoms: _103  and  _106
REMARK   46  A    between atoms: _109  and  _111
REMARK   47  A    between atoms: _111  and  _112
REMARK   48  A    between atoms: _111  and  _114
REMARK   49  A    between atoms: _114  and  _115
REMARK   50  A    between atoms: _115  and  _116
REMARK   51  A    between atoms: _116  and  _117
REMARK   52  A    between atoms: _117  and  _118
REMARK   53  A    between atoms: _122  and  _124
REMARK   54  A    between atoms: _124  and  _125
REMARK   55  A    between atoms: _124  and  _127
REMARK   56  A    between atoms: _127  and  _128
REMARK   57  A    between atoms: _128  and  _129
REMARK   58  A    between atoms: _131  and  _133
REMARK   59  A    between atoms: _133  and  _134
REMARK   60  A    between atoms: _133  and  _136
REMARK   61  A    between atoms: _136  and  _137
REMARK   62  A    between atoms: _140  and  _142
REMARK   63  A    between atoms: _142  and  _143
REMARK   64  A    between atoms: _145  and  _147
REMARK   65  A    between atoms: _147  and  _148
REMARK   66  A    between atoms: _150  and  _152
REMARK   67  A    between atoms: _152  and  _153
REMARK   68  A    between atoms: _152  and  _155
REMARK   69  A    between atoms: _158  and  _160
REMARK   70  A    between atoms: _160  and  _161
REMARK   71  A    between atoms: _163  and  _165
REMARK   72  A    between atoms: _165  and  _166
REMARK   73  A    between atoms: _168  and  _170
REMARK   74  A    between atoms: _170  and  _171
REMARK   75  A    between atoms: _170  and  _173
REMARK   76  A    between atoms: _173  and  _174
REMARK   77  A    between atoms: _180  and  _182
REMARK   78  A    between atoms: _182  and  _183
REMARK   79  A    between atoms: _182  and  _185
REMARK   80  A    between atoms: _185  and  _186
REMARK   81  A    between atoms: _189  and  _191
REMARK   82  A    between atoms: _191  and  _192
REMARK   83  A    between atoms: _191  and  _194
REMARK   84  A    between atoms: _194  and  _195
REMARK   85  A    between atoms: _198  and  _200
REMARK   86  A    between atoms: _200  and  _201
REMARK   87  A    between atoms: _200  and  _203
REMARK   88  A    between atoms: _203  and  _204
REMARK   89  A    between atoms: _208  and  _209
REMARK   90  A    between atoms: _214  and  _216
REMARK   91  A    between atoms: _216  and  _217
REMARK   92  A    between atoms: _216  and  _219
REMARK   93  A    between atoms: _222  and  _224
REMARK   94  A    between atoms: _224  and  _225
REMARK   95  A    between atoms: _224  and  _227
REMARK   96  A    between atoms: _227  and  _228
REMARK   97  A    between atoms: _233  and  _235
REMARK   98  A    between atoms: _235  and  _236
REMARK   99  A    between atoms: _235  and  _238
REMARK  100  A    between atoms: _238  and  _239
REMARK  101  A    between atoms: _242  and  _244
REMARK  102  A    between atoms: _244  and  _245
REMARK  103  A    between atoms: _244  and  _247
REMARK  104  A    between atoms: _247  and  _248
REMARK  105  A    between atoms: _251  and  _253
REMARK  106  A    between atoms: _253  and  _254
REMARK  107  A    between atoms: _256  and  _258
REMARK  108  A    between atoms: _258  and  _259
REMARK  109  A    between atoms: _258  and  _261
REMARK  110  A    between atoms: _261  and  _262
REMARK  111  A    between atoms: _262  and  _263
REMARK  112  A    between atoms: _263  and  _264
REMARK  113  A    between atoms: _273  and  _275
REMARK  114  A    between atoms: _275  and  _276
REMARK  115  A    between atoms: _275  and  _278
REMARK  116  A    between atoms: _278  and  _279
REMARK  117  A    between atoms: _284  and  _286
REMARK  118  A    between atoms: _286  and  _287
REMARK  119  A    between atoms: _286  and  _289
REMARK  120  A    between atoms: _289  and  _290
REMARK  121  A    between atoms: _290  and  _291
REMARK  122  A    between atoms: _291  and  _292
REMARK  123  A    between atoms: _302  and  _303
REMARK  124  A    between atoms: _308  and  _310
REMARK  125  A    between atoms: _310  and  _311
REMARK  126  A    between atoms: _310  and  _313
REMARK  127  A    between atoms: _313  and  _314
REMARK  128  A    between atoms: _317  and  _319
REMARK  129  A    between atoms: _319  and  _320
REMARK  130  A    between atoms: _319  and  _322
REMARK  131  A    between atoms: _322  and  _323
REMARK  132  A    between atoms: _326  and  _328
REMARK  133  A    between atoms: _328  and  _329
REMARK  134  A    between atoms: _328  and  _331
REMARK  135  A    between atoms: _331  and  _332
REMARK  136  A    between atoms: _335  and  _337
REMARK  137  A    between atoms: _337  and  _338
REMARK  138  A    between atoms: _337  and  _340
REMARK  139  A    between atoms: _340  and  _341
REMARK  140  A    between atoms: _344  and  _346
REMARK  141  A    between atoms: _346  and  _347
REMARK  142  A    between atoms: _346  and  _349
REMARK  143  A    between atoms: _349  and  _350
REMARK  144  A    between atoms: _353  and  _355
REMARK  145  A    between atoms: _355  and  _356
REMARK  146  A    between atoms: _358  and  _360
REMARK  147  A    between atoms: _360  and  _361
REMARK  148  A    between atoms: _364  and  _366
REMARK  149  A    between atoms: _366  and  _367
REMARK  150  A    between atoms: _366  and  _369
REMARK  151  A    between atoms: _369  and  _370
REMARK  152  A    between atoms: _373  and  _375
REMARK  153  A    between atoms: _375  and  _376
REMARK  154  A    between atoms: _375  and  _378
REMARK  155  A    between atoms: _378  and  _379
REMARK  156  A    between atoms: _382  and  _384
REMARK  157  A    between atoms: _384  and  _385
REMARK  158  A    between atoms: _384  and  _387
REMARK  159  A    between atoms: _387  and  _388
REMARK  160  A    between atoms: _391  and  _393
REMARK  161  A    between atoms: _393  and  _394
REMARK  162  A    between atoms: _393  and  _396
REMARK  163  A    between atoms: _399  and  _401
REMARK  164  A    between atoms: _401  and  _402
REMARK  165  A    between atoms: _401  and  _404
REMARK  166  A    between atoms: _404  and  _405
REMARK  167  A    between atoms: _408  and  _410
REMARK  168  A    between atoms: _410  and  _411
REMARK  169  A    between atoms: _410  and  _413
REMARK  170  A    between atoms: _413  and  _414
REMARK  171  A    between atoms: _417  and  _419
REMARK  172  A    between atoms: _419  and  _420
REMARK  173  A    between atoms: _422  and  _424
REMARK  174  A    between atoms: _424  and  _425
REMARK  175  A    between atoms: _427  and  _429
REMARK  176  A    between atoms: _429  and  _430
REMARK  177  A    between atoms: _429  and  _432
REMARK  178  A    between atoms: _435  and  _437
REMARK  179  A    between atoms: _437  and  _438
REMARK  180  A    between atoms: _440  and  _442
REMARK  181  A    between atoms: _442  and  _443
REMARK  182  A    between atoms: _445  and  _447
REMARK  183  A    between atoms: _447  and  _448
REMARK  184  A    between atoms: _447  and  _450
REMARK  185  A    between atoms: _450  and  _451
REMARK  186  A    between atoms: _457  and  _459
REMARK  187  A    between atoms: _459  and  _460
REMARK  188  A    between atoms: _459  and  _462
REMARK  189  A    between atoms: _462  and  _463
REMARK  190  A    between atoms: _466  and  _468
REMARK  191  A    between atoms: _468  and  _469
REMARK  192  A    between atoms: _468  and  _471
REMARK  193  A    between atoms: _474  and  _476
REMARK  194  A    between atoms: _476  and  _477
REMARK  195  A    between atoms: _476  and  _479
REMARK  196  A    between atoms: _479  and  _480
REMARK  197  A    between atoms: _483  and  _485
REMARK  198  A    between atoms: _485  and  _486
REMARK  199  A    between atoms: _485  and  _488
REMARK  200  A    between atoms: _488  and  _489
REMARK  201  A    between atoms: _493  and  _494
REMARK  202  A    between atoms: _499  and  _501
REMARK  203  A    between atoms: _501  and  _502
REMARK  204  A    between atoms: _501  and  _504
REMARK  205  A    between atoms: _507  and  _509
REMARK  206  A    between atoms: _509  and  _510
REMARK  207  A    between atoms: _509  and  _512
REMARK  208  A    between atoms: _512  and  _513
REMARK  209  A    between atoms: _518  and  _520
REMARK  210  A    between atoms: _520  and  _521
REMARK  211  A    between atoms: _520  and  _523
REMARK  212  A    between atoms: _523  and  _524
REMARK  213  A    between atoms: _527  and  _529
REMARK  214  A    between atoms: _529  and  _530
REMARK  215  A    between atoms: _529  and  _532
REMARK  216  A    between atoms: _532  and  _533
REMARK  217  A    between atoms: _536  and  _538
REMARK  218  A    between atoms: _538  and  _539
REMARK  219  A    between atoms: _541  and  _543
REMARK  220  A    between atoms: _543  and  _544
REMARK  221  A    between atoms: _543  and  _546
REMARK  222  A    between atoms: _546  and  _547
REMARK  223  A    between atoms: _547  and  _548
REMARK  224  A    between atoms: _548  and  _549
REMARK                            x       y       z     vdW  Elec       q    Type
REMARK                         _______ _______ _______ _____ _____    ______ ____
ROOT
ATOM      1  O   HOH     1     -10.987  28.519  13.149  0.00  0.00    +0.000 OA
ENDROOT
TORSDOF 0
REMARK  Name = ../refined-set-2016/2o4l/2o4l_pocket.pdb
REMARK  224 active torsions:
REMARK  status: ('A' for Active; 'I' for Inactive)
REMARK    1  A    between atoms: _1  and  _3
REMARK    2  A    between atoms: _3  and  _4
REMARK    3  A    between atoms: _3  and  _6
REMARK    4  A    between atoms: _6  and  _7
REMARK    5  A    between atoms: _7  and  _8
REMARK    6  A    between atoms: _8  and  _9
REMARK    7  A    between atoms: _18  and  _20
REMARK    8  A    between atoms: _20  and  _21
REMARK    9  A    between atoms: _20  and  _23
REMARK   10  A    between atoms: _23  and  _24
REMARK   11  A    between atoms: _27  and  _29
REMARK   12  A    between atoms: _29  and  _30
REMARK   13  A    between atoms: _29  and  _32
REMARK   14  A    between atoms: _32  and  _33
REMARK   15  A    between atoms: _36  and  _38
REMARK   16  A    between atoms: _38  and  _39
REMARK   17  A    between atoms: _38  and  _41
REMARK   18  A    between atoms: _41  and  _42
REMARK   19  A    between atoms: _45  and  _47
REMARK   20  A    between atoms: _47  and  _48
REMARK   21  A    between atoms: _47  and  _50
REMARK   22  A    between atoms: _50  and  _51
REMARK   23  A    between atoms: _54  and  _56
REMARK   24  A    between atoms: _56  and  _57
REMARK   25  A    between atoms: _56  and  _59
REMARK   26  A    between atoms: _59  and  _60
REMARK   27  A    between atoms: _63  and  _65
REMARK   28  A    between atoms: _65  and  _66
REMARK   29  A    between atoms: _68  and  _70
REMARK   30  A    between atoms: _70  and  _71
REMARK   31  A    between atoms: _74  and  _76
REMARK   32  A    between atoms: _76  and  _77
REMARK   33  A    between atoms: _76  and  _79
REMARK   34  A    between atoms: _79  and  _80
REMARK   35  A    between atoms: _83  and  _85
REMARK   36  A    between atoms: _85  and  _86
REMARK   37  A    between atoms: _85  and  _88
REMARK   38  A    between atoms: _88  and  _89
REMARK   39  A    between atoms: _92  and  _94
REMARK   40  A    between atoms: _94  and  _95
REMARK   41  A    between atoms: _94  and  _97
REMARK   42  A    between atoms: _97  and  _98
REMARK   43  A    between atoms: _101  and  _103
REMARK   44  A    between atoms: _103  and  _104
REMARK   45  A    between atoms: _103  and  _106
REMARK   46  A    between atoms: _109  and  _111
REMARK   47  A    between atoms: _111  and  _112
REMARK   48  A    between atoms: _111  and  _114
REMARK   49  A    between atoms: _114  and  _115
REMARK   50  A    between atoms: _115  and  _116
REMARK   51  A    between atoms: _116  and  _117
REMARK   52  A    between atoms: _117  and  _118
REMARK   53  A    between atoms: _122  and  _124
REMARK   54  A    between atoms: _124  and  _125
REMARK   55  A    between atoms: _124  and  _127
REMARK   56  A    between atoms: _127  and  _128
REMARK   57  A    between atoms: _128  and  _129
REMARK   58  A    between atoms: _131  and  _133
REMARK   59  A    between atoms: _133  and  _134
REMARK   60  A    between atoms: _133  and  _136
REMARK   61  A    between atoms: _136  and  _137
REMARK   62  A    between atoms: _140  and  _142
REMARK   63  A    between atoms: _142  and  _143
REMARK   64  A    between atoms: _145  and  _147
REMARK   65  A    between atoms: _147  and  _148
REMARK   66  A    between atoms: _150  and  _152
REMARK   67  A    between atoms: _152  and  _153
REMARK   68  A    between atoms: _152  and  _155
REMARK   69  A    between atoms: _158  and  _160
REMARK   70  A    between atoms: _160  and  _161
REMARK   71  A    between atoms: _163  and  _165
REMARK   72  A    between atoms: _165  and  _166
REMARK   73  A    between atoms: _168  and  _170
REMARK   74  A    between atoms: _170  and  _171
REMARK   75  A    between atoms: _170  and  _173
REMARK   76  A    between atoms: _173  and  _174
REMARK   77  A    between atoms: _180  and  _182
REMARK   78  A    between atoms: _182  and  _183
REMARK   79  A    between atoms: _182  and  _185
REMARK   80  A    between atoms: _185  and  _186
REMARK   81  A    between atoms: _189  and  _191
REMARK   82  A    between atoms: _191  and  _192
REMARK   83  A    between atoms: _191  and  _194
REMARK   84  A    between atoms: _194  and  _195
REMARK   85  A    between atoms: _198  and  _200
REMARK   86  A    between atoms: _200  and  _201
REMARK   87  A    between atoms: _200  and  _203
REMARK   88  A    between atoms: _203  and  _204
REMARK   89  A    between atoms: _208  and  _209
REMARK   90  A    between atoms: _214  and  _216
REMARK   91  A    between atoms: _216  and  _217
REMARK   92  A    between atoms: _216  and  _219
REMARK   93  A    between atoms: _222  and  _224
REMARK   94  A    between atoms: _224  and  _225
REMARK   95  A    between atoms: _224  and  _227
REMARK   96  A    between atoms: _227  and  _228
REMARK   97  A    between atoms: _233  and  _235
REMARK   98  A    between atoms: _235  and  _236
REMARK   99  A    between atoms: _235  and  _238
REMARK  100  A    between atoms: _238  and  _239
REMARK  101  A    between atoms: _242  and  _244
REMARK  102  A    between atoms: _244  and  _245
REMARK  103  A    between atoms: _244  and  _247
REMARK  104  A    between atoms: _247  and  _248
REMARK  105  A    between atoms: _251  and  _253
REMARK  106  A    between atoms: _253  and  _254
REMARK  107  A    between atoms: _256  and  _258
REMARK  108  A    between atoms: _258  and  _259
REMARK  109  A    between atoms: _258  and  _261
REMARK  110  A    between atoms: _261  and  _262
REMARK  111  A    between atoms: _262  and  _263
REMARK  112  A    between atoms: _263  and  _264
REMARK  113  A    between atoms: _273  and  _275
REMARK  114  A    between atoms: _275  and  _276
REMARK  115  A    between atoms: _275  and  _278
REMARK  116  A    between atoms: _278  and  _279
REMARK  117  A    between atoms: _284  and  _286
REMARK  118  A    between atoms: _286  and  _287
REMARK  119  A    between atoms: _286  and  _289
REMARK  120  A    between atoms: _289  and  _290
REMARK  121  A    between atoms: _290  and  _291
REMARK  122  A    between atoms: _291  and  _292
REMARK  123  A    between atoms: _302  and  _303
REMARK  124  A    between atoms: _308  and  _310
REMARK  125  A    between atoms: _310  and  _311
REMARK  126  A    between atoms: _310  and  _313
REMARK  127  A    between atoms: _313  and  _314
REMARK  128  A    between atoms: _317  and  _319
REMARK  129  A    between atoms: _319  and  _320
REMARK  130  A    between atoms: _319  and  _322
REMARK  131  A    between atoms: _322  and  _323
REMARK  132  A    between atoms: _326  and  _328
REMARK  133  A    between atoms: _328  and  _329
REMARK  134  A    between atoms: _328  and  _331
REMARK  135  A    between atoms: _331  and  _332
REMARK  136  A    between atoms: _335  and  _337
REMARK  137  A    between atoms: _337  and  _338
REMARK  138  A    between atoms: _337  and  _340
REMARK  139  A    between atoms: _340  and  _341
REMARK  140  A    between atoms: _344  and  _346
REMARK  141  A    between atoms: _346  and  _347
REMARK  142  A    between atoms: _346  and  _349
REMARK  143  A    between atoms: _349  and  _350
REMARK  144  A    between atoms: _353  and  _355
REMARK  145  A    between atoms: _355  and  _356
REMARK  146  A    between atoms: _358  and  _360
REMARK  147  A    between atoms: _360  and  _361
REMARK  148  A    between atoms: _364  and  _366
REMARK  149  A    between atoms: _366  and  _367
REMARK  150  A    between atoms: _366  and  _369
REMARK  151  A    between atoms: _369  and  _370
REMARK  152  A    between atoms: _373  and  _375
REMARK  153  A    between atoms: _375  and  _376
REMARK  154  A    between atoms: _375  and  _378
REMARK  155  A    between atoms: _378  and  _379
REMARK  156  A    between atoms: _382  and  _384
REMARK  157  A    between atoms: _384  and  _385
REMARK  158  A    between atoms: _384  and  _387
REMARK  159  A    between atoms: _387  and  _388
REMARK  160  A    between atoms: _391  and  _393
REMARK  161  A    between atoms: _393  and  _394
REMARK  162  A    between atoms: _393  and  _396
REMARK  163  A    between atoms: _399  and  _401
REMARK  164  A    between atoms: _401  and  _402
REMARK  165  A    between atoms: _401  and  _404
REMARK  166  A    between atoms: _404  and  _405
REMARK  167  A    between atoms: _408  and  _410
REMARK  168  A    between atoms: _410  and  _411
REMARK  169  A    between atoms: _410  and  _413
REMARK  170  A    between atoms: _413  and  _414
REMARK  171  A    between atoms: _417  and  _419
REMARK  172  A    between atoms: _419  and  _420
REMARK  173  A    between atoms: _422  and  _424
REMARK  174  A    between atoms: _424  and  _425
REMARK  175  A    between atoms: _427  and  _429
REMARK  176  A    between atoms: _429  and  _430
REMARK  177  A    between atoms: _429  and  _432
REMARK  178  A    between atoms: _435  and  _437
REMARK  179  A    between atoms: _437  and  _438
REMARK  180  A    between atoms: _440  and  _442
REMARK  181  A    between atoms: _442  and  _443
REMARK  182  A    between atoms: _445  and  _447
REMARK  183  A    between atoms: _447  and  _448
REMARK  184  A    between atoms: _447  and  _450
REMARK  185  A    between atoms: _450  and  _451
REMARK  186  A    between atoms: _457  and  _459
REMARK  187  A    between atoms: _459  and  _460
REMARK  188  A    between atoms: _459  and  _462
REMARK  189  A    between atoms: _462  and  _463
REMARK  190  A    between atoms: _466  and  _468
REMARK  191  A    between atoms: _468  and  _469
REMARK  192  A    between atoms: _468  and  _471
REMARK  193  A    between atoms: _474  and  _476
REMARK  194  A    between atoms: _476  and  _477
REMARK  195  A    between atoms: _476  and  _479
REMARK  196  A    between atoms: _479  and  _480
REMARK  197  A    between atoms: _483  and  _485
REMARK  198  A    between atoms: _485  and  _486
REMARK  199  A    between atoms: _485  and  _488
REMARK  200  A    between atoms: _488  and  _489
REMARK  201  A    between atoms: _493  and  _494
REMARK  202  A    between atoms: _499  and  _501
REMARK  203  A    between atoms: _501  and  _502
REMARK  204  A    between atoms: _501  and  _504
REMARK  205  A    between atoms: _507  and  _509
REMARK  206  A    between atoms: _509  and  _510
REMARK  207  A    between atoms: _509  and  _512
REMARK  208  A    between atoms: _512  and  _513
REMARK  209  A    between atoms: _518  and  _520
REMARK  210  A    between atoms: _520  and  _521
REMARK  211  A    between atoms: _520  and  _523
REMARK  212  A    between atoms: _523  and  _524
REMARK  213  A    between atoms: _527  and  _529
REMARK  214  A    between atoms: _529  and  _530
REMARK  215  A    between atoms: _529  and  _532
REMARK  216  A    between atoms: _532  and  _533
REMARK  217  A    between atoms: _536  and  _538
REMARK  218  A    between atoms: _538  and  _539
REMARK  219  A    between atoms: _541  and  _543
REMARK  220  A    between atoms: _543  and  _544
REMARK  221  A    between atoms: _543  and  _546
REMARK  222  A    between atoms: _546  and  _547
REMARK  223  A    between atoms: _547  and  _548
REMARK  224  A    between atoms: _548  and  _549
REMARK                            x       y       z     vdW  Elec       q    Type
REMARK                         _______ _______ _______ _____ _____    ______ ____
ROOT
ATOM      1  O   HOH     1     -12.878  27.886   8.906  0.00  0.00    +0.000 OA
ENDROOT
TORSDOF 0
REMARK  Name = ../refined-set-2016/2o4l/2o4l_pocket.pdb
REMARK  224 active torsions:
REMARK  status: ('A' for Active; 'I' for Inactive)
REMARK    1  A    between atoms: _1  and  _3
REMARK    2  A    between atoms: _3  and  _4
REMARK    3  A    between atoms: _3  and  _6
REMARK    4  A    between atoms: _6  and  _7
REMARK    5  A    between atoms: _7  and  _8
REMARK    6  A    between atoms: _8  and  _9
REMARK    7  A    between atoms: _18  and  _20
REMARK    8  A    between atoms: _20  and  _21
REMARK    9  A    between atoms: _20  and  _23
REMARK   10  A    between atoms: _23  and  _24
REMARK   11  A    between atoms: _27  and  _29
REMARK   12  A    between atoms: _29  and  _30
REMARK   13  A    between atoms: _29  and  _32
REMARK   14  A    between atoms: _32  and  _33
REMARK   15  A    between atoms: _36  and  _38
REMARK   16  A    between atoms: _38  and  _39
REMARK   17  A    between atoms: _38  and  _41
REMARK   18  A    between atoms: _41  and  _42
REMARK   19  A    between atoms: _45  and  _47
REMARK   20  A    between atoms: _47  and  _48
REMARK   21  A    between atoms: _47  and  _50
REMARK   22  A    between atoms: _50  and  _51
REMARK   23  A    between atoms: _54  and  _56
REMARK   24  A    between atoms: _56  and  _57
REMARK   25  A    between atoms: _56  and  _59
REMARK   26  A    between atoms: _59  and  _60
REMARK   27  A    between atoms: _63  and  _65
REMARK   28  A    between atoms: _65  and  _66
REMARK   29  A    between atoms: _68  and  _70
REMARK   30  A    between atoms: _70  and  _71
REMARK   31  A    between atoms: _74  and  _76
REMARK   32  A    between atoms: _76  and  _77
REMARK   33  A    between atoms: _76  and  _79
REMARK   34  A    between atoms: _79  and  _80
REMARK   35  A    between atoms: _83  and  _85
REMARK   36  A    between atoms: _85  and  _86
REMARK   37  A    between atoms: _85  and  _88
REMARK   38  A    between atoms: _88  and  _89
REMARK   39  A    between atoms: _92  and  _94
REMARK   40  A    between atoms: _94  and  _95
REMARK   41  A    between atoms: _94  and  _97
REMARK   42  A    between atoms: _97  and  _98
REMARK   43  A    between atoms: _101  and  _103
REMARK   44  A    between atoms: _103  and  _104
REMARK   45  A    between atoms: _103  and  _106
REMARK   46  A    between atoms: _109  and  _111
REMARK   47  A    between atoms: _111  and  _112
REMARK   48  A    between atoms: _111  and  _114
REMARK   49  A    between atoms: _114  and  _115
REMARK   50  A    between atoms: _115  and  _116
REMARK   51  A    between atoms: _116  and  _117
REMARK   52  A    between atoms: _117  and  _118
REMARK   53  A    between atoms: _122  and  _124
REMARK   54  A    between atoms: _124  and  _125
REMARK   55  A    between atoms: _124  and  _127
REMARK   56  A    between atoms: _127  and  _128
REMARK   57  A    between atoms: _128  and  _129
REMARK   58  A    between atoms: _131  and  _133
REMARK   59  A    between atoms: _133  and  _134
REMARK   60  A    between atoms: _133  and  _136
REMARK   61  A    between atoms: _136  and  _137
REMARK   62  A    between atoms: _140  and  _142
REMARK   63  A    between atoms: _142  and  _143
REMARK   64  A    between atoms: _145  and  _147
REMARK   65  A    between atoms: _147  and  _148
REMARK   66  A    between atoms: _150  and  _152
REMARK   67  A    between atoms: _152  and  _153
REMARK   68  A    between atoms: _152  and  _155
REMARK   69  A    between atoms: _158  and  _160
REMARK   70  A    between atoms: _160  and  _161
REMARK   71  A    between atoms: _163  and  _165
REMARK   72  A    between atoms: _165  and  _166
REMARK   73  A    between atoms: _168  and  _170
REMARK   74  A    between atoms: _170  and  _171
REMARK   75  A    between atoms: _170  and  _173
REMARK   76  A    between atoms: _173  and  _174
REMARK   77  A    between atoms: _180  and  _182
REMARK   78  A    between atoms: _182  and  _183
REMARK   79  A    between atoms: _182  and  _185
REMARK   80  A    between atoms: _185  and  _186
REMARK   81  A    between atoms: _189  and  _191
REMARK   82  A    between atoms: _191  and  _192
REMARK   83  A    between atoms: _191  and  _194
REMARK   84  A    between atoms: _194  and  _195
REMARK   85  A    between atoms: _198  and  _200
REMARK   86  A    between atoms: _200  and  _201
REMARK   87  A    between atoms: _200  and  _203
REMARK   88  A    between atoms: _203  and  _204
REMARK   89  A    between atoms: _208  and  _209
REMARK   90  A    between atoms: _214  and  _216
REMARK   91  A    between atoms: _216  and  _217
REMARK   92  A    between atoms: _216  and  _219
REMARK   93  A    between atoms: _222  and  _224
REMARK   94  A    between atoms: _224  and  _225
REMARK   95  A    between atoms: _224  and  _227
REMARK   96  A    between atoms: _227  and  _228
REMARK   97  A    between atoms: _233  and  _235
REMARK   98  A    between atoms: _235  and  _236
REMARK   99  A    between atoms: _235  and  _238
REMARK  100  A    between atoms: _238  and  _239
REMARK  101  A    between atoms: _242  and  _244
REMARK  102  A    between atoms: _244  and  _245
REMARK  103  A    between atoms: _244  and  _247
REMARK  104  A    between atoms: _247  and  _248
REMARK  105  A    between atoms: _251  and  _253
REMARK  106  A    between atoms: _253  and  _254
REMARK  107  A    between atoms: _256  and  _258
REMARK  108  A    between atoms: _258  and  _259
REMARK  109  A    between atoms: _258  and  _261
REMARK  110  A    between atoms: _261  and  _262
REMARK  111  A    between atoms: _262  and  _263
REMARK  112  A    between atoms: _263  and  _264
REMARK  113  A    between atoms: _273  and  _275
REMARK  114  A    between atoms: _275  and  _276
REMARK  115  A    between atoms: _275  and  _278
REMARK  116  A    between atoms: _278  and  _279
REMARK  117  A    between atoms: _284  and  _286
REMARK  118  A    between atoms: _286  and  _287
REMARK  119  A    between atoms: _286  and  _289
REMARK  120  A    between atoms: _289  and  _290
REMARK  121  A    between atoms: _290  and  _291
REMARK  122  A    between atoms: _291  and  _292
REMARK  123  A    between atoms: _302  and  _303
REMARK  124  A    between atoms: _308  and  _310
REMARK  125  A    between atoms: _310  and  _311
REMARK  126  A    between atoms: _310  and  _313
REMARK  127  A    between atoms: _313  and  _314
REMARK  128  A    between atoms: _317  and  _319
REMARK  129  A    between atoms: _319  and  _320
REMARK  130  A    between atoms: _319  and  _322
REMARK  131  A    between atoms: _322  and  _323
REMARK  132  A    between atoms: _326  and  _328
REMARK  133  A    between atoms: _328  and  _329
REMARK  134  A    between atoms: _328  and  _331
REMARK  135  A    between atoms: _331  and  _332
REMARK  136  A    between atoms: _335  and  _337
REMARK  137  A    between atoms: _337  and  _338
REMARK  138  A    between atoms: _337  and  _340
REMARK  139  A    between atoms: _340  and  _341
REMARK  140  A    between atoms: _344  and  _346
REMARK  141  A    between atoms: _346  and  _347
REMARK  142  A    between atoms: _346  and  _349
REMARK  143  A    between atoms: _349  and  _350
REMARK  144  A    between atoms: _353  and  _355
REMARK  145  A    between atoms: _355  and  _356
REMARK  146  A    between atoms: _358  and  _360
REMARK  147  A    between atoms: _360  and  _361
REMARK  148  A    between atoms: _364  and  _366
REMARK  149  A    between atoms: _366  and  _367
REMARK  150  A    between atoms: _366  and  _369
REMARK  151  A    between atoms: _369  and  _370
REMARK  152  A    between atoms: _373  and  _375
REMARK  153  A    between atoms: _375  and  _376
REMARK  154  A    between atoms: _375  and  _378
REMARK  155  A    between atoms: _378  and  _379
REMARK  156  A    between atoms: _382  and  _384
REMARK  157  A    between atoms: _384  and  _385
REMARK  158  A    between atoms: _384  and  _387
REMARK  159  A    between atoms: _387  and  _388
REMARK  160  A    between atoms: _391  and  _393
REMARK  161  A    between atoms: _393  and  _394
REMARK  162  A    between atoms: _393  and  _396
REMARK  163  A    between atoms: _399  and  _401
REMARK  164  A    between atoms: _401  and  _402
REMARK  165  A    between atoms: _401  and  _404
REMARK  166  A    between atoms: _404  and  _405
REMARK  167  A    between atoms: _408  and  _410
REMARK  168  A    between atoms: _410  and  _411
REMARK  169  A    between atoms: _410  and  _413
REMARK  170  A    between atoms: _413  and  _414
REMARK  171  A    between atoms: _417  and  _419
REMARK  172  A    between atoms: _419  and  _420
REMARK  173  A    between atoms: _422  and  _424
REMARK  174  A    between atoms: _424  and  _425
REMARK  175  A    between atoms: _427  and  _429
REMARK  176  A    between atoms: _429  and  _430
REMARK  177  A    between atoms: _429  and  _432
REMARK  178  A    between atoms: _435  and  _437
REMARK  179  A    between atoms: _437  and  _438
REMARK  180  A    between atoms: _440  and  _442
REMARK  181  A    between atoms: _442  and  _443
REMARK  182  A    between atoms: _445  and  _447
REMARK  183  A    between atoms: _447  and  _448
REMARK  184  A    between atoms: _447  and  _450
REMARK  185  A    between atoms: _450  and  _451
REMARK  186  A    between atoms: _457  and  _459
REMARK  187  A    between atoms: _459  and  _460
REMARK  188  A    between atoms: _459  and  _462
REMARK  189  A    between atoms: _462  and  _463
REMARK  190  A    between atoms: _466  and  _468
REMARK  191  A    between atoms: _468  and  _469
REMARK  192  A    between atoms: _468  and  _471
REMARK  193  A    between atoms: _474  and  _476
REMARK  194  A    between atoms: _476  and  _477
REMARK  195  A    between atoms: _476  and  _479
REMARK  196  A    between atoms: _479  and  _480
REMARK  197  A    between atoms: _483  and  _485
REMARK  198  A    between atoms: _485  and  _486
REMARK  199  A    between atoms: _485  and  _488
REMARK  200  A    between atoms: _488  and  _489
REMARK  201  A    between atoms: _493  and  _494
REMARK  202  A    between atoms: _499  and  _501
REMARK  203  A    between atoms: _501  and  _502
REMARK  204  A    between atoms: _501  and  _504
REMARK  205  A    between atoms: _507  and  _509
REMARK  206  A    between atoms: _509  and  _510
REMARK  207  A    between atoms: _509  and  _512
REMARK  208  A    between atoms: _512  and  _513
REMARK  209  A    between atoms: _518  and  _520
REMARK  210  A    between atoms: _520  and  _521
REMARK  211  A    between atoms: _520  and  _523
REMARK  212  A    between atoms: _523  and  _524
REMARK  213  A    between atoms: _527  and  _529
REMARK  214  A    between atoms: _529  and  _530
REMARK  215  A    between atoms: _529  and  _532
REMARK  216  A    between atoms: _532  and  _533
REMARK  217  A    between atoms: _536  and  _538
REMARK  218  A    between atoms: _538  and  _539
REMARK  219  A    between atoms: _541  and  _543
REMARK  220  A    between atoms: _543  and  _544
REMARK  221  A    between atoms: _543  and  _546
REMARK  222  A    between atoms: _546  and  _547
REMARK  223  A    between atoms: _547  and  _548
REMARK  224  A    between atoms: _548  and  _549
REMARK                            x       y       z     vdW  Elec       q    Type
REMARK                         _______ _______ _______ _____ _____    ______ ____
ROOT
ATOM      1  O   HOH     1      -8.017  27.866  19.068  0.00  0.00    +0.000 OA
ENDROOT
TORSDOF 0
REMARK  Name = ../refined-set-2016/2o4l/2o4l_pocket.pdb
REMARK  224 active torsions:
REMARK  status: ('A' for Active; 'I' for Inactive)
REMARK    1  A    between atoms: _1  and  _3
REMARK    2  A    between atoms: _3  and  _4
REMARK    3  A    between atoms: _3  and  _6
REMARK    4  A    between atoms: _6  and  _7
REMARK    5  A    between atoms: _7  and  _8
REMARK    6  A    between atoms: _8  and  _9
REMARK    7  A    between atoms: _18  and  _20
REMARK    8  A    between atoms: _20  and  _21
REMARK    9  A    between atoms: _20  and  _23
REMARK   10  A    between atoms: _23  and  _24
REMARK   11  A    between atoms: _27  and  _29
REMARK   12  A    between atoms: _29  and  _30
REMARK   13  A    between atoms: _29  and  _32
REMARK   14  A    between atoms: _32  and  _33
REMARK   15  A    between atoms: _36  and  _38
REMARK   16  A    between atoms: _38  and  _39
REMARK   17  A    between atoms: _38  and  _41
REMARK   18  A    between atoms: _41  and  _42
REMARK   19  A    between atoms: _45  and  _47
REMARK   20  A    between atoms: _47  and  _48
REMARK   21  A    between atoms: _47  and  _50
REMARK   22  A    between atoms: _50  and  _51
REMARK   23  A    between atoms: _54  and  _56
REMARK   24  A    between atoms: _56  and  _57
REMARK   25  A    between atoms: _56  and  _59
REMARK   26  A    between atoms: _59  and  _60
REMARK   27  A    between atoms: _63  and  _65
REMARK   28  A    between atoms: _65  and  _66
REMARK   29  A    between atoms: _68  and  _70
REMARK   30  A    between atoms: _70  and  _71
REMARK   31  A    between atoms: _74  and  _76
REMARK   32  A    between atoms: _76  and  _77
REMARK   33  A    between atoms: _76  and  _79
REMARK   34  A    between atoms: _79  and  _80
REMARK   35  A    between atoms: _83  and  _85
REMARK   36  A    between atoms: _85  and  _86
REMARK   37  A    between atoms: _85  and  _88
REMARK   38  A    between atoms: _88  and  _89
REMARK   39  A    between atoms: _92  and  _94
REMARK   40  A    between atoms: _94  and  _95
REMARK   41  A    between atoms: _94  and  _97
REMARK   42  A    between atoms: _97  and  _98
REMARK   43  A    between atoms: _101  and  _103
REMARK   44  A    between atoms: _103  and  _104
REMARK   45  A    between atoms: _103  and  _106
REMARK   46  A    between atoms: _109  and  _111
REMARK   47  A    between atoms: _111  and  _112
REMARK   48  A    between atoms: _111  and  _114
REMARK   49  A    between atoms: _114  and  _115
REMARK   50  A    between atoms: _115  and  _116
REMARK   51  A    between atoms: _116  and  _117
REMARK   52  A    between atoms: _117  and  _118
REMARK   53  A    between atoms: _122  and  _124
REMARK   54  A    between atoms: _124  and  _125
REMARK   55  A    between atoms: _124  and  _127
REMARK   56  A    between atoms: _127  and  _128
REMARK   57  A    between atoms: _128  and  _129
REMARK   58  A    between atoms: _131  and  _133
REMARK   59  A    between atoms: _133  and  _134
REMARK   60  A    between atoms: _133  and  _136
REMARK   61  A    between atoms: _136  and  _137
REMARK   62  A    between atoms: _140  and  _142
REMARK   63  A    between atoms: _142  and  _143
REMARK   64  A    between atoms: _145  and  _147
REMARK   65  A    between atoms: _147  and  _148
REMARK   66  A    between atoms: _150  and  _152
REMARK   67  A    between atoms: _152  and  _153
REMARK   68  A    between atoms: _152  and  _155
REMARK   69  A    between atoms: _158  and  _160
REMARK   70  A    between atoms: _160  and  _161
REMARK   71  A    between atoms: _163  and  _165
REMARK   72  A    between atoms: _165  and  _166
REMARK   73  A    between atoms: _168  and  _170
REMARK   74  A    between atoms: _170  and  _171
REMARK   75  A    between atoms: _170  and  _173
REMARK   76  A    between atoms: _173  and  _174
REMARK   77  A    between atoms: _180  and  _182
REMARK   78  A    between atoms: _182  and  _183
REMARK   79  A    between atoms: _182  and  _185
REMARK   80  A    between atoms: _185  and  _186
REMARK   81  A    between atoms: _189  and  _191
REMARK   82  A    between atoms: _191  and  _192
REMARK   83  A    between atoms: _191  and  _194
REMARK   84  A    between atoms: _194  and  _195
REMARK   85  A    between atoms: _198  and  _200
REMARK   86  A    between atoms: _200  and  _201
REMARK   87  A    between atoms: _200  and  _203
REMARK   88  A    between atoms: _203  and  _204
REMARK   89  A    between atoms: _208  and  _209
REMARK   90  A    between atoms: _214  and  _216
REMARK   91  A    between atoms: _216  and  _217
REMARK   92  A    between atoms: _216  and  _219
REMARK   93  A    between atoms: _222  and  _224
REMARK   94  A    between atoms: _224  and  _225
REMARK   95  A    between atoms: _224  and  _227
REMARK   96  A    between atoms: _227  and  _228
REMARK   97  A    between atoms: _233  and  _235
REMARK   98  A    between atoms: _235  and  _236
REMARK   99  A    between atoms: _235  and  _238
REMARK  100  A    between atoms: _238  and  _239
REMARK  101  A    between atoms: _242  and  _244
REMARK  102  A    between atoms: _244  and  _245
REMARK  103  A    between atoms: _244  and  _247
REMARK  104  A    between atoms: _247  and  _248
REMARK  105  A    between atoms: _251  and  _253
REMARK  106  A    between atoms: _253  and  _254
REMARK  107  A    between atoms: _256  and  _258
REMARK  108  A    between atoms: _258  and  _259
REMARK  109  A    between atoms: _258  and  _261
REMARK  110  A    between atoms: _261  and  _262
REMARK  111  A    between atoms: _262  and  _263
REMARK  112  A    between atoms: _263  and  _264
REMARK  113  A    between atoms: _273  and  _275
REMARK  114  A    between atoms: _275  and  _276
REMARK  115  A    between atoms: _275  and  _278
REMARK  116  A    between atoms: _278  and  _279
REMARK  117  A    between atoms: _284  and  _286
REMARK  118  A    between atoms: _286  and  _287
REMARK  119  A    between atoms: _286  and  _289
REMARK  120  A    between atoms: _289  and  _290
REMARK  121  A    between atoms: _290  and  _291
REMARK  122  A    between atoms: _291  and  _292
REMARK  123  A    between atoms: _302  and  _303
REMARK  124  A    between atoms: _308  and  _310
REMARK  125  A    between atoms: _310  and  _311
REMARK  126  A    between atoms: _310  and  _313
REMARK  127  A    between atoms: _313  and  _314
REMARK  128  A    between atoms: _317  and  _319
REMARK  129  A    between atoms: _319  and  _320
REMARK  130  A    between atoms: _319  and  _322
REMARK  131  A    between atoms: _322  and  _323
REMARK  132  A    between atoms: _326  and  _328
REMARK  133  A    between atoms: _328  and  _329
REMARK  134  A    between atoms: _328  and  _331
REMARK  135  A    between atoms: _331  and  _332
REMARK  136  A    between atoms: _335  and  _337
REMARK  137  A    between atoms: _337  and  _338
REMARK  138  A    between atoms: _337  and  _340
REMARK  139  A    between atoms: _340  and  _341
REMARK  140  A    between atoms: _344  and  _346
REMARK  141  A    between atoms: _346  and  _347
REMARK  142  A    between atoms: _346  and  _349
REMARK  143  A    between atoms: _349  and  _350
REMARK  144  A    between atoms: _353  and  _355
REMARK  145  A    between atoms: _355  and  _356
REMARK  146  A    between atoms: _358  and  _360
REMARK  147  A    between atoms: _360  and  _361
REMARK  148  A    between atoms: _364  and  _366
REMARK  149  A    between atoms: _366  and  _367
REMARK  150  A    between atoms: _366  and  _369
REMARK  151  A    between atoms: _369  and  _370
REMARK  152  A    between atoms: _373  and  _375
REMARK  153  A    between atoms: _375  and  _376
REMARK  154  A    between atoms: _375  and  _378
REMARK  155  A    between atoms: _378  and  _379
REMARK  156  A    between atoms: _382  and  _384
REMARK  157  A    between atoms: _384  and  _385
REMARK  158  A    between atoms: _384  and  _387
REMARK  159  A    between atoms: _387  and  _388
REMARK  160  A    between atoms: _391  and  _393
REMARK  161  A    between atoms: _393  and  _394
REMARK  162  A    between atoms: _393  and  _396
REMARK  163  A    between atoms: _399  and  _401
REMARK  164  A    between atoms: _401  and  _402
REMARK  165  A    between atoms: _401  and  _404
REMARK  166  A    between atoms: _404  and  _405
REMARK  167  A    between atoms: _408  and  _410
REMARK  168  A    between atoms: _410  and  _411
REMARK  169  A    between atoms: _410  and  _413
REMARK  170  A    between atoms: _413  and  _414
REMARK  171  A    between atoms: _417  and  _419
REMARK  172  A    between atoms: _419  and  _420
REMARK  173  A    between atoms: _422  and  _424
REMARK  174  A    between atoms: _424  and  _425
REMARK  175  A    between atoms: _427  and  _429
REMARK  176  A    between atoms: _429  and  _430
REMARK  177  A    between atoms: _429  and  _432
REMARK  178  A    between atoms: _435  and  _437
REMARK  179  A    between atoms: _437  and  _438
REMARK  180  A    between atoms: _440  and  _442
REMARK  181  A    between atoms: _442  and  _443
REMARK  182  A    between atoms: _445  and  _447
REMARK  183  A    between atoms: _447  and  _448
REMARK  184  A    between atoms: _447  and  _450
REMARK  185  A    between atoms: _450  and  _451
REMARK  186  A    between atoms: _457  and  _459
REMARK  187  A    between atoms: _459  and  _460
REMARK  188  A    between atoms: _459  and  _462
REMARK  189  A    between atoms: _462  and  _463
REMARK  190  A    between atoms: _466  and  _468
REMARK  191  A    between atoms: _468  and  _469
REMARK  192  A    between atoms: _468  and  _471
REMARK  193  A    between atoms: _474  and  _476
REMARK  194  A    between atoms: _476  and  _477
REMARK  195  A    between atoms: _476  and  _479
REMARK  196  A    between atoms: _479  and  _480
REMARK  197  A    between atoms: _483  and  _485
REMARK  198  A    between atoms: _485  and  _486
REMARK  199  A    between atoms: _485  and  _488
REMARK  200  A    between atoms: _488  and  _489
REMARK  201  A    between atoms: _493  and  _494
REMARK  202  A    between atoms: _499  and  _501
REMARK  203  A    between atoms: _501  and  _502
REMARK  204  A    between atoms: _501  and  _504
REMARK  205  A    between atoms: _507  and  _509
REMARK  206  A    between atoms: _509  and  _510
REMARK  207  A    between atoms: _509  and  _512
REMARK  208  A    between atoms: _512  and  _513
REMARK  209  A    between atoms: _518  and  _520
REMARK  210  A    between atoms: _520  and  _521
REMARK  211  A    between atoms: _520  and  _523
REMARK  212  A    between atoms: _523  and  _524
REMARK  213  A    between atoms: _527  and  _529
REMARK  214  A    between atoms: _529  and  _530
REMARK  215  A    between atoms: _529  and  _532
REMARK  216  A    between atoms: _532  and  _533
REMARK  217  A    between atoms: _536  and  _538
REMARK  218  A    between atoms: _538  and  _539
REMARK  219  A    between atoms: _541  and  _543
REMARK  220  A    between atoms: _543  and  _544
REMARK  221  A    between atoms: _543  and  _546
REMARK  222  A    between atoms: _546  and  _547
REMARK  223  A    between atoms: _547  and  _548
REMARK  224  A    between atoms: _548  and  _549
REMARK                            x       y       z     vdW  Elec       q    Type
REMARK                         _______ _______ _______ _____ _____    ______ ____
ROOT
ATOM      1  O   HOH     1     -26.770  15.990  20.547  0.00  0.00    +0.000 OA
ENDROOT
TORSDOF 0
REMARK  Name = ../refined-set-2016/2o4l/2o4l_pocket.pdb
REMARK  224 active torsions:
REMARK  status: ('A' for Active; 'I' for Inactive)
REMARK    1  A    between atoms: _1  and  _3
REMARK    2  A    between atoms: _3  and  _4
REMARK    3  A    between atoms: _3  and  _6
REMARK    4  A    between atoms: _6  and  _7
REMARK    5  A    between atoms: _7  and  _8
REMARK    6  A    between atoms: _8  and  _9
REMARK    7  A    between atoms: _18  and  _20
REMARK    8  A    between atoms: _20  and  _21
REMARK    9  A    between atoms: _20  and  _23
REMARK   10  A    between atoms: _23  and  _24
REMARK   11  A    between atoms: _27  and  _29
REMARK   12  A    between atoms: _29  and  _30
REMARK   13  A    between atoms: _29  and  _32
REMARK   14  A    between atoms: _32  and  _33
REMARK   15  A    between atoms: _36  and  _38
REMARK   16  A    between atoms: _38  and  _39
REMARK   17  A    between atoms: _38  and  _41
REMARK   18  A    between atoms: _41  and  _42
REMARK   19  A    between atoms: _45  and  _47
REMARK   20  A    between atoms: _47  and  _48
REMARK   21  A    between atoms: _47  and  _50
REMARK   22  A    between atoms: _50  and  _51
REMARK   23  A    between atoms: _54  and  _56
REMARK   24  A    between atoms: _56  and  _57
REMARK   25  A    between atoms: _56  and  _59
REMARK   26  A    between atoms: _59  and  _60
REMARK   27  A    between atoms: _63  and  _65
REMARK   28  A    between atoms: _65  and  _66
REMARK   29  A    between atoms: _68  and  _70
REMARK   30  A    between atoms: _70  and  _71
REMARK   31  A    between atoms: _74  and  _76
REMARK   32  A    between atoms: _76  and  _77
REMARK   33  A    between atoms: _76  and  _79
REMARK   34  A    between atoms: _79  and  _80
REMARK   35  A    between atoms: _83  and  _85
REMARK   36  A    between atoms: _85  and  _86
REMARK   37  A    between atoms: _85  and  _88
REMARK   38  A    between atoms: _88  and  _89
REMARK   39  A    between atoms: _92  and  _94
REMARK   40  A    between atoms: _94  and  _95
REMARK   41  A    between atoms: _94  and  _97
REMARK   42  A    between atoms: _97  and  _98
REMARK   43  A    between atoms: _101  and  _103
REMARK   44  A    between atoms: _103  and  _104
REMARK   45  A    between atoms: _103  and  _106
REMARK   46  A    between atoms: _109  and  _111
REMARK   47  A    between atoms: _111  and  _112
REMARK   48  A    between atoms: _111  and  _114
REMARK   49  A    between atoms: _114  and  _115
REMARK   50  A    between atoms: _115  and  _116
REMARK   51  A    between atoms: _116  and  _117
REMARK   52  A    between atoms: _117  and  _118
REMARK   53  A    between atoms: _122  and  _124
REMARK   54  A    between atoms: _124  and  _125
REMARK   55  A    between atoms: _124  and  _127
REMARK   56  A    between atoms: _127  and  _128
REMARK   57  A    between atoms: _128  and  _129
REMARK   58  A    between atoms: _131  and  _133
REMARK   59  A    between atoms: _133  and  _134
REMARK   60  A    between atoms: _133  and  _136
REMARK   61  A    between atoms: _136  and  _137
REMARK   62  A    between atoms: _140  and  _142
REMARK   63  A    between atoms: _142  and  _143
REMARK   64  A    between atoms: _145  and  _147
REMARK   65  A    between atoms: _147  and  _148
REMARK   66  A    between atoms: _150  and  _152
REMARK   67  A    between atoms: _152  and  _153
REMARK   68  A    between atoms: _152  and  _155
REMARK   69  A    between atoms: _158  and  _160
REMARK   70  A    between atoms: _160  and  _161
REMARK   71  A    between atoms: _163  and  _165
REMARK   72  A    between atoms: _165  and  _166
REMARK   73  A    between atoms: _168  and  _170
REMARK   74  A    between atoms: _170  and  _171
REMARK   75  A    between atoms: _170  and  _173
REMARK   76  A    between atoms: _173  and  _174
REMARK   77  A    between atoms: _180  and  _182
REMARK   78  A    between atoms: _182  and  _183
REMARK   79  A    between atoms: _182  and  _185
REMARK   80  A    between atoms: _185  and  _186
REMARK   81  A    between atoms: _189  and  _191
REMARK   82  A    between atoms: _191  and  _192
REMARK   83  A    between atoms: _191  and  _194
REMARK   84  A    between atoms: _194  and  _195
REMARK   85  A    between atoms: _198  and  _200
REMARK   86  A    between atoms: _200  and  _201
REMARK   87  A    between atoms: _200  and  _203
REMARK   88  A    between atoms: _203  and  _204
REMARK   89  A    between atoms: _208  and  _209
REMARK   90  A    between atoms: _214  and  _216
REMARK   91  A    between atoms: _216  and  _217
REMARK   92  A    between atoms: _216  and  _219
REMARK   93  A    between atoms: _222  and  _224
REMARK   94  A    between atoms: _224  and  _225
REMARK   95  A    between atoms: _224  and  _227
REMARK   96  A    between atoms: _227  and  _228
REMARK   97  A    between atoms: _233  and  _235
REMARK   98  A    between atoms: _235  and  _236
REMARK   99  A    between atoms: _235  and  _238
REMARK  100  A    between atoms: _238  and  _239
REMARK  101  A    between atoms: _242  and  _244
REMARK  102  A    between atoms: _244  and  _245
REMARK  103  A    between atoms: _244  and  _247
REMARK  104  A    between atoms: _247  and  _248
REMARK  105  A    between atoms: _251  and  _253
REMARK  106  A    between atoms: _253  and  _254
REMARK  107  A    between atoms: _256  and  _258
REMARK  108  A    between atoms: _258  and  _259
REMARK  109  A    between atoms: _258  and  _261
REMARK  110  A    between atoms: _261  and  _262
REMARK  111  A    between atoms: _262  and  _263
REMARK  112  A    between atoms: _263  and  _264
REMARK  113  A    between atoms: _273  and  _275
REMARK  114  A    between atoms: _275  and  _276
REMARK  115  A    between atoms: _275  and  _278
REMARK  116  A    between atoms: _278  and  _279
REMARK  117  A    between atoms: _284  and  _286
REMARK  118  A    between atoms: _286  and  _287
REMARK  119  A    between atoms: _286  and  _289
REMARK  120  A    between atoms: _289  and  _290
REMARK  121  A    between atoms: _290  and  _291
REMARK  122  A    between atoms: _291  and  _292
REMARK  123  A    between atoms: _302  and  _303
REMARK  124  A    between atoms: _308  and  _310
REMARK  125  A    between atoms: _310  and  _311
REMARK  126  A    between atoms: _310  and  _313
REMARK  127  A    between atoms: _313  and  _314
REMARK  128  A    between atoms: _317  and  _319
REMARK  129  A    between atoms: _319  and  _320
REMARK  130  A    between atoms: _319  and  _322
REMARK  131  A    between atoms: _322  and  _323
REMARK  132  A    between atoms: _326  and  _328
REMARK  133  A    between atoms: _328  and  _329
REMARK  134  A    between atoms: _328  and  _331
REMARK  135  A    between atoms: _331  and  _332
REMARK  136  A    between atoms: _335  and  _337
REMARK  137  A    between atoms: _337  and  _338
REMARK  138  A    between atoms: _337  and  _340
REMARK  139  A    between atoms: _340  and  _341
REMARK  140  A    between atoms: _344  and  _346
REMARK  141  A    between atoms: _346  and  _347
REMARK  142  A    between atoms: _346  and  _349
REMARK  143  A    between atoms: _349  and  _350
REMARK  144  A    between atoms: _353  and  _355
REMARK  145  A    between atoms: _355  and  _356
REMARK  146  A    between atoms: _358  and  _360
REMARK  147  A    between atoms: _360  and  _361
REMARK  148  A    between atoms: _364  and  _366
REMARK  149  A    between atoms: _366  and  _367
REMARK  150  A    between atoms: _366  and  _369
REMARK  151  A    between atoms: _369  and  _370
REMARK  152  A    between atoms: _373  and  _375
REMARK  153  A    between atoms: _375  and  _376
REMARK  154  A    between atoms: _375  and  _378
REMARK  155  A    between atoms: _378  and  _379
REMARK  156  A    between atoms: _382  and  _384
REMARK  157  A    between atoms: _384  and  _385
REMARK  158  A    between atoms: _384  and  _387
REMARK  159  A    between atoms: _387  and  _388
REMARK  160  A    between atoms: _391  and  _393
REMARK  161  A    between atoms: _393  and  _394
REMARK  162  A    between atoms: _393  and  _396
REMARK  163  A    between atoms: _399  and  _401
REMARK  164  A    between atoms: _401  and  _402
REMARK  165  A    between atoms: _401  and  _404
REMARK  166  A    between atoms: _404  and  _405
REMARK  167  A    between atoms: _408  and  _410
REMARK  168  A    between atoms: _410  and  _411
REMARK  169  A    between atoms: _410  and  _413
REMARK  170  A    between atoms: _413  and  _414
REMARK  171  A    between atoms: _417  and  _419
REMARK  172  A    between atoms: _419  and  _420
REMARK  173  A    between atoms: _422  and  _424
REMARK  174  A    between atoms: _424  and  _425
REMARK  175  A    between atoms: _427  and  _429
REMARK  176  A    between atoms: _429  and  _430
REMARK  177  A    between atoms: _429  and  _432
REMARK  178  A    between atoms: _435  and  _437
REMARK  179  A    between atoms: _437  and  _438
REMARK  180  A    between atoms: _440  and  _442
REMARK  181  A    between atoms: _442  and  _443
REMARK  182  A    between atoms: _445  and  _447
REMARK  183  A    between atoms: _447  and  _448
REMARK  184  A    between atoms: _447  and  _450
REMARK  185  A    between atoms: _450  and  _451
REMARK  186  A    between atoms: _457  and  _459
REMARK  187  A    between atoms: _459  and  _460
REMARK  188  A    between atoms: _459  and  _462
REMARK  189  A    between atoms: _462  and  _463
REMARK  190  A    between atoms: _466  and  _468
REMARK  191  A    between atoms: _468  and  _469
REMARK  192  A    between atoms: _468  and  _471
REMARK  193  A    between atoms: _474  and  _476
REMARK  194  A    between atoms: _476  and  _477
REMARK  195  A    between atoms: _476  and  _479
REMARK  196  A    between atoms: _479  and  _480
REMARK  197  A    between atoms: _483  and  _485
REMARK  198  A    between atoms: _485  and  _486
REMARK  199  A    between atoms: _485  and  _488
REMARK  200  A    between atoms: _488  and  _489
REMARK  201  A    between atoms: _493  and  _494
REMARK  202  A    between atoms: _499  and  _501
REMARK  203  A    between atoms: _501  and  _502
REMARK  204  A    between atoms: _501  and  _504
REMARK  205  A    between atoms: _507  and  _509
REMARK  206  A    between atoms: _509  and  _510
REMARK  207  A    between atoms: _509  and  _512
REMARK  208  A    between atoms: _512  and  _513
REMARK  209  A    between atoms: _518  and  _520
REMARK  210  A    between atoms: _520  and  _521
REMARK  211  A    between atoms: _520  and  _523
REMARK  212  A    between atoms: _523  and  _524
REMARK  213  A    between atoms: _527  and  _529
REMARK  214  A    between atoms: _529  and  _530
REMARK  215  A    between atoms: _529  and  _532
REMARK  216  A    between atoms: _532  and  _533
REMARK  217  A    between atoms: _536  and  _538
REMARK  218  A    between atoms: _538  and  _539
REMARK  219  A    between atoms: _541  and  _543
REMARK  220  A    between atoms: _543  and  _544
REMARK  221  A    between atoms: _543  and  _546
REMARK  222  A    between atoms: _546  and  _547
REMARK  223  A    between atoms: _547  and  _548
REMARK  224  A    between atoms: _548  and  _549
REMARK                            x       y       z     vdW  Elec       q    Type
REMARK                         _______ _______ _______ _____ _____    ______ ____
ROOT
ATOM      1  O   HOH     1     -17.463  27.232   9.652  0.00  0.00    +0.000 OA
ENDROOT
TORSDOF 0
REMARK  Name = ../refined-set-2016/2o4l/2o4l_pocket.pdb
REMARK  224 active torsions:
REMARK  status: ('A' for Active; 'I' for Inactive)
REMARK    1  A    between atoms: _1  and  _3
REMARK    2  A    between atoms: _3  and  _4
REMARK    3  A    between atoms: _3  and  _6
REMARK    4  A    between atoms: _6  and  _7
REMARK    5  A    between atoms: _7  and  _8
REMARK    6  A    between atoms: _8  and  _9
REMARK    7  A    between atoms: _18  and  _20
REMARK    8  A    between atoms: _20  and  _21
REMARK    9  A    between atoms: _20  and  _23
REMARK   10  A    between atoms: _23  and  _24
REMARK   11  A    between atoms: _27  and  _29
REMARK   12  A    between atoms: _29  and  _30
REMARK   13  A    between atoms: _29  and  _32
REMARK   14  A    between atoms: _32  and  _33
REMARK   15  A    between atoms: _36  and  _38
REMARK   16  A    between atoms: _38  and  _39
REMARK   17  A    between atoms: _38  and  _41
REMARK   18  A    between atoms: _41  and  _42
REMARK   19  A    between atoms: _45  and  _47
REMARK   20  A    between atoms: _47  and  _48
REMARK   21  A    between atoms: _47  and  _50
REMARK   22  A    between atoms: _50  and  _51
REMARK   23  A    between atoms: _54  and  _56
REMARK   24  A    between atoms: _56  and  _57
REMARK   25  A    between atoms: _56  and  _59
REMARK   26  A    between atoms: _59  and  _60
REMARK   27  A    between atoms: _63  and  _65
REMARK   28  A    between atoms: _65  and  _66
REMARK   29  A    between atoms: _68  and  _70
REMARK   30  A    between atoms: _70  and  _71
REMARK   31  A    between atoms: _74  and  _76
REMARK   32  A    between atoms: _76  and  _77
REMARK   33  A    between atoms: _76  and  _79
REMARK   34  A    between atoms: _79  and  _80
REMARK   35  A    between atoms: _83  and  _85
REMARK   36  A    between atoms: _85  and  _86
REMARK   37  A    between atoms: _85  and  _88
REMARK   38  A    between atoms: _88  and  _89
REMARK   39  A    between atoms: _92  and  _94
REMARK   40  A    between atoms: _94  and  _95
REMARK   41  A    between atoms: _94  and  _97
REMARK   42  A    between atoms: _97  and  _98
REMARK   43  A    between atoms: _101  and  _103
REMARK   44  A    between atoms: _103  and  _104
REMARK   45  A    between atoms: _103  and  _106
REMARK   46  A    between atoms: _109  and  _111
REMARK   47  A    between atoms: _111  and  _112
REMARK   48  A    between atoms: _111  and  _114
REMARK   49  A    between atoms: _114  and  _115
REMARK   50  A    between atoms: _115  and  _116
REMARK   51  A    between atoms: _116  and  _117
REMARK   52  A    between atoms: _117  and  _118
REMARK   53  A    between atoms: _122  and  _124
REMARK   54  A    between atoms: _124  and  _125
REMARK   55  A    between atoms: _124  and  _127
REMARK   56  A    between atoms: _127  and  _128
REMARK   57  A    between atoms: _128  and  _129
REMARK   58  A    between atoms: _131  and  _133
REMARK   59  A    between atoms: _133  and  _134
REMARK   60  A    between atoms: _133  and  _136
REMARK   61  A    between atoms: _136  and  _137
REMARK   62  A    between atoms: _140  and  _142
REMARK   63  A    between atoms: _142  and  _143
REMARK   64  A    between atoms: _145  and  _147
REMARK   65  A    between atoms: _147  and  _148
REMARK   66  A    between atoms: _150  and  _152
REMARK   67  A    between atoms: _152  and  _153
REMARK   68  A    between atoms: _152  and  _155
REMARK   69  A    between atoms: _158  and  _160
REMARK   70  A    between atoms: _160  and  _161
REMARK   71  A    between atoms: _163  and  _165
REMARK   72  A    between atoms: _165  and  _166
REMARK   73  A    between atoms: _168  and  _170
REMARK   74  A    between atoms: _170  and  _171
REMARK   75  A    between atoms: _170  and  _173
REMARK   76  A    between atoms: _173  and  _174
REMARK   77  A    between atoms: _180  and  _182
REMARK   78  A    between atoms: _182  and  _183
REMARK   79  A    between atoms: _182  and  _185
REMARK   80  A    between atoms: _185  and  _186
REMARK   81  A    between atoms: _189  and  _191
REMARK   82  A    between atoms: _191  and  _192
REMARK   83  A    between atoms: _191  and  _194
REMARK   84  A    between atoms: _194  and  _195
REMARK   85  A    between atoms: _198  and  _200
REMARK   86  A    between atoms: _200  and  _201
REMARK   87  A    between atoms: _200  and  _203
REMARK   88  A    between atoms: _203  and  _204
REMARK   89  A    between atoms: _208  and  _209
REMARK   90  A    between atoms: _214  and  _216
REMARK   91  A    between atoms: _216  and  _217
REMARK   92  A    between atoms: _216  and  _219
REMARK   93  A    between atoms: _222  and  _224
REMARK   94  A    between atoms: _224  and  _225
REMARK   95  A    between atoms: _224  and  _227
REMARK   96  A    between atoms: _227  and  _228
REMARK   97  A    between atoms: _233  and  _235
REMARK   98  A    between atoms: _235  and  _236
REMARK   99  A    between atoms: _235  and  _238
REMARK  100  A    between atoms: _238  and  _239
REMARK  101  A    between atoms: _242  and  _244
REMARK  102  A    between atoms: _244  and  _245
REMARK  103  A    between atoms: _244  and  _247
REMARK  104  A    between atoms: _247  and  _248
REMARK  105  A    between atoms: _251  and  _253
REMARK  106  A    between atoms: _253  and  _254
REMARK  107  A    between atoms: _256  and  _258
REMARK  108  A    between atoms: _258  and  _259
REMARK  109  A    between atoms: _258  and  _261
REMARK  110  A    between atoms: _261  and  _262
REMARK  111  A    between atoms: _262  and  _263
REMARK  112  A    between atoms: _263  and  _264
REMARK  113  A    between atoms: _273  and  _275
REMARK  114  A    between atoms: _275  and  _276
REMARK  115  A    between atoms: _275  and  _278
REMARK  116  A    between atoms: _278  and  _279
REMARK  117  A    between atoms: _284  and  _286
REMARK  118  A    between atoms: _286  and  _287
REMARK  119  A    between atoms: _286  and  _289
REMARK  120  A    between atoms: _289  and  _290
REMARK  121  A    between atoms: _290  and  _291
REMARK  122  A    between atoms: _291  and  _292
REMARK  123  A    between atoms: _302  and  _303
REMARK  124  A    between atoms: _308  and  _310
REMARK  125  A    between atoms: _310  and  _311
REMARK  126  A    between atoms: _310  and  _313
REMARK  127  A    between atoms: _313  and  _314
REMARK  128  A    between atoms: _317  and  _319
REMARK  129  A    between atoms: _319  and  _320
REMARK  130  A    between atoms: _319  and  _322
REMARK  131  A    between atoms: _322  and  _323
REMARK  132  A    between atoms: _326  and  _328
REMARK  133  A    between atoms: _328  and  _329
REMARK  134  A    between atoms: _328  and  _331
REMARK  135  A    between atoms: _331  and  _332
REMARK  136  A    between atoms: _335  and  _337
REMARK  137  A    between atoms: _337  and  _338
REMARK  138  A    between atoms: _337  and  _340
REMARK  139  A    between atoms: _340  and  _341
REMARK  140  A    between atoms: _344  and  _346
REMARK  141  A    between atoms: _346  and  _347
REMARK  142  A    between atoms: _346  and  _349
REMARK  143  A    between atoms: _349  and  _350
REMARK  144  A    between atoms: _353  and  _355
REMARK  145  A    between atoms: _355  and  _356
REMARK  146  A    between atoms: _358  and  _360
REMARK  147  A    between atoms: _360  and  _361
REMARK  148  A    between atoms: _364  and  _366
REMARK  149  A    between atoms: _366  and  _367
REMARK  150  A    between atoms: _366  and  _369
REMARK  151  A    between atoms: _369  and  _370
REMARK  152  A    between atoms: _373  and  _375
REMARK  153  A    between atoms: _375  and  _376
REMARK  154  A    between atoms: _375  and  _378
REMARK  155  A    between atoms: _378  and  _379
REMARK  156  A    between atoms: _382  and  _384
REMARK  157  A    between atoms: _384  and  _385
REMARK  158  A    between atoms: _384  and  _387
REMARK  159  A    between atoms: _387  and  _388
REMARK  160  A    between atoms: _391  and  _393
REMARK  161  A    between atoms: _393  and  _394
REMARK  162  A    between atoms: _393  and  _396
REMARK  163  A    between atoms: _399  and  _401
REMARK  164  A    between atoms: _401  and  _402
REMARK  165  A    between atoms: _401  and  _404
REMARK  166  A    between atoms: _404  and  _405
REMARK  167  A    between atoms: _408  and  _410
REMARK  168  A    between atoms: _410  and  _411
REMARK  169  A    between atoms: _410  and  _413
REMARK  170  A    between atoms: _413  and  _414
REMARK  171  A    between atoms: _417  and  _419
REMARK  172  A    between atoms: _419  and  _420
REMARK  173  A    between atoms: _422  and  _424
REMARK  174  A    between atoms: _424  and  _425
REMARK  175  A    between atoms: _427  and  _429
REMARK  176  A    between atoms: _429  and  _430
REMARK  177  A    between atoms: _429  and  _432
REMARK  178  A    between atoms: _435  and  _437
REMARK  179  A    between atoms: _437  and  _438
REMARK  180  A    between atoms: _440  and  _442
REMARK  181  A    between atoms: _442  and  _443
REMARK  182  A    between atoms: _445  and  _447
REMARK  183  A    between atoms: _447  and  _448
REMARK  184  A    between atoms: _447  and  _450
REMARK  185  A    between atoms: _450  and  _451
REMARK  186  A    between atoms: _457  and  _459
REMARK  187  A    between atoms: _459  and  _460
REMARK  188  A    between atoms: _459  and  _462
REMARK  189  A    between atoms: _462  and  _463
REMARK  190  A    between atoms: _466  and  _468
REMARK  191  A    between atoms: _468  and  _469
REMARK  192  A    between atoms: _468  and  _471
REMARK  193  A    between atoms: _474  and  _476
REMARK  194  A    between atoms: _476  and  _477
REMARK  195  A    between atoms: _476  and  _479
REMARK  196  A    between atoms: _479  and  _480
REMARK  197  A    between atoms: _483  and  _485
REMARK  198  A    between atoms: _485  and  _486
REMARK  199  A    between atoms: _485  and  _488
REMARK  200  A    between atoms: _488  and  _489
REMARK  201  A    between atoms: _493  and  _494
REMARK  202  A    between atoms: _499  and  _501
REMARK  203  A    between atoms: _501  and  _502
REMARK  204  A    between atoms: _501  and  _504
REMARK  205  A    between atoms: _507  and  _509
REMARK  206  A    between atoms: _509  and  _510
REMARK  207  A    between atoms: _509  and  _512
REMARK  208  A    between atoms: _512  and  _513
REMARK  209  A    between atoms: _518  and  _520
REMARK  210  A    between atoms: _520  and  _521
REMARK  211  A    between atoms: _520  and  _523
REMARK  212  A    between atoms: _523  and  _524
REMARK  213  A    between atoms: _527  and  _529
REMARK  214  A    between atoms: _529  and  _530
REMARK  215  A    between atoms: _529  and  _532
REMARK  216  A    between atoms: _532  and  _533
REMARK  217  A    between atoms: _536  and  _538
REMARK  218  A    between atoms: _538  and  _539
REMARK  219  A    between atoms: _541  and  _543
REMARK  220  A    between atoms: _543  and  _544
REMARK  221  A    between atoms: _543  and  _546
REMARK  222  A    between atoms: _546  and  _547
REMARK  223  A    between atoms: _547  and  _548
REMARK  224  A    between atoms: _548  and  _549
REMARK                            x       y       z     vdW  Elec       q    Type
REMARK                         _______ _______ _______ _____ _____    ______ ____
ROOT
ATOM      1  O   HOH     1     -26.020  17.182  24.372  0.00  0.00    +0.000 OA
ENDROOT
TORSDOF 0
REMARK  Name = ../refined-set-2016/2o4l/2o4l_pocket.pdb
REMARK  224 active torsions:
REMARK  status: ('A' for Active; 'I' for Inactive)
REMARK    1  A    between atoms: _1  and  _3
REMARK    2  A    between atoms: _3  and  _4
REMARK    3  A    between atoms: _3  and  _6
REMARK    4  A    between atoms: _6  and  _7
REMARK    5  A    between atoms: _7  and  _8
REMARK    6  A    between atoms: _8  and  _9
REMARK    7  A    between atoms: _18  and  _20
REMARK    8  A    between atoms: _20  and  _21
REMARK    9  A    between atoms: _20  and  _23
REMARK   10  A    between atoms: _23  and  _24
REMARK   11  A    between atoms: _27  and  _29
REMARK   12  A    between atoms: _29  and  _30
REMARK   13  A    between atoms: _29  and  _32
REMARK   14  A    between atoms: _32  and  _33
REMARK   15  A    between atoms: _36  and  _38
REMARK   16  A    between atoms: _38  and  _39
REMARK   17  A    between atoms: _38  and  _41
REMARK   18  A    between atoms: _41  and  _42
REMARK   19  A    between atoms: _45  and  _47
REMARK   20  A    between atoms: _47  and  _48
REMARK   21  A    between atoms: _47  and  _50
REMARK   22  A    between atoms: _50  and  _51
REMARK   23  A    between atoms: _54  and  _56
REMARK   24  A    between atoms: _56  and  _57
REMARK   25  A    between atoms: _56  and  _59
REMARK   26  A    between atoms: _59  and  _60
REMARK   27  A    between atoms: _63  and  _65
REMARK   28  A    between atoms: _65  and  _66
REMARK   29  A    between atoms: _68  and  _70
REMARK   30  A    between atoms: _70  and  _71
REMARK   31  A    between atoms: _74  and  _76
REMARK   32  A    between atoms: _76  and  _77
REMARK   33  A    between atoms: _76  and  _79
REMARK   34  A    between atoms: _79  and  _80
REMARK   35  A    between atoms: _83  and  _85
REMARK   36  A    between atoms: _85  and  _86
REMARK   37  A    between atoms: _85  and  _88
REMARK   38  A    between atoms: _88  and  _89
REMARK   39  A    between atoms: _92  and  _94
REMARK   40  A    between atoms: _94  and  _95
REMARK   41  A    between atoms: _94  and  _97
REMARK   42  A    between atoms: _97  and  _98
REMARK   43  A    between atoms: _101  and  _103
REMARK   44  A    between atoms: _103  and  _104
REMARK   45  A    between atoms: _103  and  _106
REMARK   46  A    between atoms: _109  and  _111
REMARK   47  A    between atoms: _111  and  _112
REMARK   48  A    between atoms: _111  and  _114
REMARK   49  A    between atoms: _114  and  _115
REMARK   50  A    between atoms: _115  and  _116
REMARK   51  A    between atoms: _116  and  _117
REMARK   52  A    between atoms: _117  and  _118
REMARK   53  A    between atoms: _122  and  _124
REMARK   54  A    between atoms: _124  and  _125
REMARK   55  A    between atoms: _124  and  _127
REMARK   56  A    between atoms: _127  and  _128
REMARK   57  A    between atoms: _128  and  _129
REMARK   58  A    between atoms: _131  and  _133
REMARK   59  A    between atoms: _133  and  _134
REMARK   60  A    between atoms: _133  and  _136
REMARK   61  A    between atoms: _136  and  _137
REMARK   62  A    between atoms: _140  and  _142
REMARK   63  A    between atoms: _142  and  _143
REMARK   64  A    between atoms: _145  and  _147
REMARK   65  A    between atoms: _147  and  _148
REMARK   66  A    between atoms: _150  and  _152
REMARK   67  A    between atoms: _152  and  _153
REMARK   68  A    between atoms: _152  and  _155
REMARK   69  A    between atoms: _158  and  _160
REMARK   70  A    between atoms: _160  and  _161
REMARK   71  A    between atoms: _163  and  _165
REMARK   72  A    between atoms: _165  and  _166
REMARK   73  A    between atoms: _168  and  _170
REMARK   74  A    between atoms: _170  and  _171
REMARK   75  A    between atoms: _170  and  _173
REMARK   76  A    between atoms: _173  and  _174
REMARK   77  A    between atoms: _180  and  _182
REMARK   78  A    between atoms: _182  and  _183
REMARK   79  A    between atoms: _182  and  _185
REMARK   80  A    between atoms: _185  and  _186
REMARK   81  A    between atoms: _189  and  _191
REMARK   82  A    between atoms: _191  and  _192
REMARK   83  A    between atoms: _191  and  _194
REMARK   84  A    between atoms: _194  and  _195
REMARK   85  A    between atoms: _198  and  _200
REMARK   86  A    between atoms: _200  and  _201
REMARK   87  A    between atoms: _200  and  _203
REMARK   88  A    between atoms: _203  and  _204
REMARK   89  A    between atoms: _208  and  _209
REMARK   90  A    between atoms: _214  and  _216
REMARK   91  A    between atoms: _216  and  _217
REMARK   92  A    between atoms: _216  and  _219
REMARK   93  A    between atoms: _222  and  _224
REMARK   94  A    between atoms: _224  and  _225
REMARK   95  A    between atoms: _224  and  _227
REMARK   96  A    between atoms: _227  and  _228
REMARK   97  A    between atoms: _233  and  _235
REMARK   98  A    between atoms: _235  and  _236
REMARK   99  A    between atoms: _235  and  _238
REMARK  100  A    between atoms: _238  and  _239
REMARK  101  A    between atoms: _242  and  _244
REMARK  102  A    between atoms: _244  and  _245
REMARK  103  A    between atoms: _244  and  _247
REMARK  104  A    between atoms: _247  and  _248
REMARK  105  A    between atoms: _251  and  _253
REMARK  106  A    between atoms: _253  and  _254
REMARK  107  A    between atoms: _256  and  _258
REMARK  108  A    between atoms: _258  and  _259
REMARK  109  A    between atoms: _258  and  _261
REMARK  110  A    between atoms: _261  and  _262
REMARK  111  A    between atoms: _262  and  _263
REMARK  112  A    between atoms: _263  and  _264
REMARK  113  A    between atoms: _273  and  _275
REMARK  114  A    between atoms: _275  and  _276
REMARK  115  A    between atoms: _275  and  _278
REMARK  116  A    between atoms: _278  and  _279
REMARK  117  A    between atoms: _284  and  _286
REMARK  118  A    between atoms: _286  and  _287
REMARK  119  A    between atoms: _286  and  _289
REMARK  120  A    between atoms: _289  and  _290
REMARK  121  A    between atoms: _290  and  _291
REMARK  122  A    between atoms: _291  and  _292
REMARK  123  A    between atoms: _302  and  _303
REMARK  124  A    between atoms: _308  and  _310
REMARK  125  A    between atoms: _310  and  _311
REMARK  126  A    between atoms: _310  and  _313
REMARK  127  A    between atoms: _313  and  _314
REMARK  128  A    between atoms: _317  and  _319
REMARK  129  A    between atoms: _319  and  _320
REMARK  130  A    between atoms: _319  and  _322
REMARK  131  A    between atoms: _322  and  _323
REMARK  132  A    between atoms: _326  and  _328
REMARK  133  A    between atoms: _328  and  _329
REMARK  134  A    between atoms: _328  and  _331
REMARK  135  A    between atoms: _331  and  _332
REMARK  136  A    between atoms: _335  and  _337
REMARK  137  A    between atoms: _337  and  _338
REMARK  138  A    between atoms: _337  and  _340
REMARK  139  A    between atoms: _340  and  _341
REMARK  140  A    between atoms: _344  and  _346
REMARK  141  A    between atoms: _346  and  _347
REMARK  142  A    between atoms: _346  and  _349
REMARK  143  A    between atoms: _349  and  _350
REMARK  144  A    between atoms: _353  and  _355
REMARK  145  A    between atoms: _355  and  _356
REMARK  146  A    between atoms: _358  and  _360
REMARK  147  A    between atoms: _360  and  _361
REMARK  148  A    between atoms: _364  and  _366
REMARK  149  A    between atoms: _366  and  _367
REMARK  150  A    between atoms: _366  and  _369
REMARK  151  A    between atoms: _369  and  _370
REMARK  152  A    between atoms: _373  and  _375
REMARK  153  A    between atoms: _375  and  _376
REMARK  154  A    between atoms: _375  and  _378
REMARK  155  A    between atoms: _378  and  _379
REMARK  156  A    between atoms: _382  and  _384
REMARK  157  A    between atoms: _384  and  _385
REMARK  158  A    between atoms: _384  and  _387
REMARK  159  A    between atoms: _387  and  _388
REMARK  160  A    between atoms: _391  and  _393
REMARK  161  A    between atoms: _393  and  _394
REMARK  162  A    between atoms: _393  and  _396
REMARK  163  A    between atoms: _399  and  _401
REMARK  164  A    between atoms: _401  and  _402
REMARK  165  A    between atoms: _401  and  _404
REMARK  166  A    between atoms: _404  and  _405
REMARK  167  A    between atoms: _408  and  _410
REMARK  168  A    between atoms: _410  and  _411
REMARK  169  A    between atoms: _410  and  _413
REMARK  170  A    between atoms: _413  and  _414
REMARK  171  A    between atoms: _417  and  _419
REMARK  172  A    between atoms: _419  and  _420
REMARK  173  A    between atoms: _422  and  _424
REMARK  174  A    between atoms: _424  and  _425
REMARK  175  A    between atoms: _427  and  _429
REMARK  176  A    between atoms: _429  and  _430
REMARK  177  A    between atoms: _429  and  _432
REMARK  178  A    between atoms: _435  and  _437
REMARK  179  A    between atoms: _437  and  _438
REMARK  180  A    between atoms: _440  and  _442
REMARK  181  A    between atoms: _442  and  _443
REMARK  182  A    between atoms: _445  and  _447
REMARK  183  A    between atoms: _447  and  _448
REMARK  184  A    between atoms: _447  and  _450
REMARK  185  A    between atoms: _450  and  _451
REMARK  186  A    between atoms: _457  and  _459
REMARK  187  A    between atoms: _459  and  _460
REMARK  188  A    between atoms: _459  and  _462
REMARK  189  A    between atoms: _462  and  _463
REMARK  190  A    between atoms: _466  and  _468
REMARK  191  A    between atoms: _468  and  _469
REMARK  192  A    between atoms: _468  and  _471
REMARK  193  A    between atoms: _474  and  _476
REMARK  194  A    between atoms: _476  and  _477
REMARK  195  A    between atoms: _476  and  _479
REMARK  196  A    between atoms: _479  and  _480
REMARK  197  A    between atoms: _483  and  _485
REMARK  198  A    between atoms: _485  and  _486
REMARK  199  A    between atoms: _485  and  _488
REMARK  200  A    between atoms: _488  and  _489
REMARK  201  A    between atoms: _493  and  _494
REMARK  202  A    between atoms: _499  and  _501
REMARK  203  A    between atoms: _501  and  _502
REMARK  204  A    between atoms: _501  and  _504
REMARK  205  A    between atoms: _507  and  _509
REMARK  206  A    between atoms: _509  and  _510
REMARK  207  A    between atoms: _509  and  _512
REMARK  208  A    between atoms: _512  and  _513
REMARK  209  A    between atoms: _518  and  _520
REMARK  210  A    between atoms: _520  and  _521
REMARK  211  A    between atoms: _520  and  _523
REMARK  212  A    between atoms: _523  and  _524
REMARK  213  A    between atoms: _527  and  _529
REMARK  214  A    between atoms: _529  and  _530
REMARK  215  A    between atoms: _529  and  _532
REMARK  216  A    between atoms: _532  and  _533
REMARK  217  A    between atoms: _536  and  _538
REMARK  218  A    between atoms: _538  and  _539
REMARK  219  A    between atoms: _541  and  _543
REMARK  220  A    between atoms: _543  and  _544
REMARK  221  A    between atoms: _543  and  _546
REMARK  222  A    between atoms: _546  and  _547
REMARK  223  A    between atoms: _547  and  _548
REMARK  224  A    between atoms: _548  and  _549
REMARK                            x       y       z     vdW  Elec       q    Type
REMARK                         _______ _______ _______ _____ _____    ______ ____
ROOT
ATOM      1  O   HOH     1     -26.312  19.645  23.606  0.00  0.00    +0.000 OA
ENDROOT
TORSDOF 0
REMARK  Name = ../refined-set-2016/2o4l/2o4l_pocket.pdb
REMARK  224 active torsions:
REMARK  status: ('A' for Active; 'I' for Inactive)
REMARK    1  A    between atoms: _1  and  _3
REMARK    2  A    between atoms: _3  and  _4
REMARK    3  A    between atoms: _3  and  _6
REMARK    4  A    between atoms: _6  and  _7
REMARK    5  A    between atoms: _7  and  _8
REMARK    6  A    between atoms: _8  and  _9
REMARK    7  A    between atoms: _18  and  _20
REMARK    8  A    between atoms: _20  and  _21
REMARK    9  A    between atoms: _20  and  _23
REMARK   10  A    between atoms: _23  and  _24
REMARK   11  A    between atoms: _27  and  _29
REMARK   12  A    between atoms: _29  and  _30
REMARK   13  A    between atoms: _29  and  _32
REMARK   14  A    between atoms: _32  and  _33
REMARK   15  A    between atoms: _36  and  _38
REMARK   16  A    between atoms: _38  and  _39
REMARK   17  A    between atoms: _38  and  _41
REMARK   18  A    between atoms: _41  and  _42
REMARK   19  A    between atoms: _45  and  _47
REMARK   20  A    between atoms: _47  and  _48
REMARK   21  A    between atoms: _47  and  _50
REMARK   22  A    between atoms: _50  and  _51
REMARK   23  A    between atoms: _54  and  _56
REMARK   24  A    between atoms: _56  and  _57
REMARK   25  A    between atoms: _56  and  _59
REMARK   26  A    between atoms: _59  and  _60
REMARK   27  A    between atoms: _63  and  _65
REMARK   28  A    between atoms: _65  and  _66
REMARK   29  A    between atoms: _68  and  _70
REMARK   30  A    between atoms: _70  and  _71
REMARK   31  A    between atoms: _74  and  _76
REMARK   32  A    between atoms: _76  and  _77
REMARK   33  A    between atoms: _76  and  _79
REMARK   34  A    between atoms: _79  and  _80
REMARK   35  A    between atoms: _83  and  _85
REMARK   36  A    between atoms: _85  and  _86
REMARK   37  A    between atoms: _85  and  _88
REMARK   38  A    between atoms: _88  and  _89
REMARK   39  A    between atoms: _92  and  _94
REMARK   40  A    between atoms: _94  and  _95
REMARK   41  A    between atoms: _94  and  _97
REMARK   42  A    between atoms: _97  and  _98
REMARK   43  A    between atoms: _101  and  _103
REMARK   44  A    between atoms: _103  and  _104
REMARK   45  A    between atoms: _103  and  _106
REMARK   46  A    between atoms: _109  and  _111
REMARK   47  A    between atoms: _111  and  _112
REMARK   48  A    between atoms: _111  and  _114
REMARK   49  A    between atoms: _114  and  _115
REMARK   50  A    between atoms: _115  and  _116
REMARK   51  A    between atoms: _116  and  _117
REMARK   52  A    between atoms: _117  and  _118
REMARK   53  A    between atoms: _122  and  _124
REMARK   54  A    between atoms: _124  and  _125
REMARK   55  A    between atoms: _124  and  _127
REMARK   56  A    between atoms: _127  and  _128
REMARK   57  A    between atoms: _128  and  _129
REMARK   58  A    between atoms: _131  and  _133
REMARK   59  A    between atoms: _133  and  _134
REMARK   60  A    between atoms: _133  and  _136
REMARK   61  A    between atoms: _136  and  _137
REMARK   62  A    between atoms: _140  and  _142
REMARK   63  A    between atoms: _142  and  _143
REMARK   64  A    between atoms: _145  and  _147
REMARK   65  A    between atoms: _147  and  _148
REMARK   66  A    between atoms: _150  and  _152
REMARK   67  A    between atoms: _152  and  _153
REMARK   68  A    between atoms: _152  and  _155
REMARK   69  A    between atoms: _158  and  _160
REMARK   70  A    between atoms: _160  and  _161
REMARK   71  A    between atoms: _163  and  _165
REMARK   72  A    between atoms: _165  and  _166
REMARK   73  A    between atoms: _168  and  _170
REMARK   74  A    between atoms: _170  and  _171
REMARK   75  A    between atoms: _170  and  _173
REMARK   76  A    between atoms: _173  and  _174
REMARK   77  A    between atoms: _180  and  _182
REMARK   78  A    between atoms: _182  and  _183
REMARK   79  A    between atoms: _182  and  _185
REMARK   80  A    between atoms: _185  and  _186
REMARK   81  A    between atoms: _189  and  _191
REMARK   82  A    between atoms: _191  and  _192
REMARK   83  A    between atoms: _191  and  _194
REMARK   84  A    between atoms: _194  and  _195
REMARK   85  A    between atoms: _198  and  _200
REMARK   86  A    between atoms: _200  and  _201
REMARK   87  A    between atoms: _200  and  _203
REMARK   88  A    between atoms: _203  and  _204
REMARK   89  A    between atoms: _208  and  _209
REMARK   90  A    between atoms: _214  and  _216
REMARK   91  A    between atoms: _216  and  _217
REMARK   92  A    between atoms: _216  and  _219
REMARK   93  A    between atoms: _222  and  _224
REMARK   94  A    between atoms: _224  and  _225
REMARK   95  A    between atoms: _224  and  _227
REMARK   96  A    between atoms: _227  and  _228
REMARK   97  A    between atoms: _233  and  _235
REMARK   98  A    between atoms: _235  and  _236
REMARK   99  A    between atoms: _235  and  _238
REMARK  100  A    between atoms: _238  and  _239
REMARK  101  A    between atoms: _242  and  _244
REMARK  102  A    between atoms: _244  and  _245
REMARK  103  A    between atoms: _244  and  _247
REMARK  104  A    between atoms: _247  and  _248
REMARK  105  A    between atoms: _251  and  _253
REMARK  106  A    between atoms: _253  and  _254
REMARK  107  A    between atoms: _256  and  _258
REMARK  108  A    between atoms: _258  and  _259
REMARK  109  A    between atoms: _258  and  _261
REMARK  110  A    between atoms: _261  and  _262
REMARK  111  A    between atoms: _262  and  _263
REMARK  112  A    between atoms: _263  and  _264
REMARK  113  A    between atoms: _273  and  _275
REMARK  114  A    between atoms: _275  and  _276
REMARK  115  A    between atoms: _275  and  _278
REMARK  116  A    between atoms: _278  and  _279
REMARK  117  A    between atoms: _284  and  _286
REMARK  118  A    between atoms: _286  and  _287
REMARK  119  A    between atoms: _286  and  _289
REMARK  120  A    between atoms: _289  and  _290
REMARK  121  A    between atoms: _290  and  _291
REMARK  122  A    between atoms: _291  and  _292
REMARK  123  A    between atoms: _302  and  _303
REMARK  124  A    between atoms: _308  and  _310
REMARK  125  A    between atoms: _310  and  _311
REMARK  126  A    between atoms: _310  and  _313
REMARK  127  A    between atoms: _313  and  _314
REMARK  128  A    between atoms: _317  and  _319
REMARK  129  A    between atoms: _319  and  _320
REMARK  130  A    between atoms: _319  and  _322
REMARK  131  A    between atoms: _322  and  _323
REMARK  132  A    between atoms: _326  and  _328
REMARK  133  A    between atoms: _328  and  _329
REMARK  134  A    between atoms: _328  and  _331
REMARK  135  A    between atoms: _331  and  _332
REMARK  136  A    between atoms: _335  and  _337
REMARK  137  A    between atoms: _337  and  _338
REMARK  138  A    between atoms: _337  and  _340
REMARK  139  A    between atoms: _340  and  _341
REMARK  140  A    between atoms: _344  and  _346
REMARK  141  A    between atoms: _346  and  _347
REMARK  142  A    between atoms: _346  and  _349
REMARK  143  A    between atoms: _349  and  _350
REMARK  144  A    between atoms: _353  and  _355
REMARK  145  A    between atoms: _355  and  _356
REMARK  146  A    between atoms: _358  and  _360
REMARK  147  A    between atoms: _360  and  _361
REMARK  148  A    between atoms: _364  and  _366
REMARK  149  A    between atoms: _366  and  _367
REMARK  150  A    between atoms: _366  and  _369
REMARK  151  A    between atoms: _369  and  _370
REMARK  152  A    between atoms: _373  and  _375
REMARK  153  A    between atoms: _375  and  _376
REMARK  154  A    between atoms: _375  and  _378
REMARK  155  A    between atoms: _378  and  _379
REMARK  156  A    between atoms: _382  and  _384
REMARK  157  A    between atoms: _384  and  _385
REMARK  158  A    between atoms: _384  and  _387
REMARK  159  A    between atoms: _387  and  _388
REMARK  160  A    between atoms: _391  and  _393
REMARK  161  A    between atoms: _393  and  _394
REMARK  162  A    between atoms: _393  and  _396
REMARK  163  A    between atoms: _399  and  _401
REMARK  164  A    between atoms: _401  and  _402
REMARK  165  A    between atoms: _401  and  _404
REMARK  166  A    between atoms: _404  and  _405
REMARK  167  A    between atoms: _408  and  _410
REMARK  168  A    between atoms: _410  and  _411
REMARK  169  A    between atoms: _410  and  _413
REMARK  170  A    between atoms: _413  and  _414
REMARK  171  A    between atoms: _417  and  _419
REMARK  172  A    between atoms: _419  and  _420
REMARK  173  A    between atoms: _422  and  _424
REMARK  174  A    between atoms: _424  and  _425
REMARK  175  A    between atoms: _427  and  _429
REMARK  176  A    between atoms: _429  and  _430
REMARK  177  A    between atoms: _429  and  _432
REMARK  178  A    between atoms: _435  and  _437
REMARK  179  A    between atoms: _437  and  _438
REMARK  180  A    between atoms: _440  and  _442
REMARK  181  A    between atoms: _442  and  _443
REMARK  182  A    between atoms: _445  and  _447
REMARK  183  A    between atoms: _447  and  _448
REMARK  184  A    between atoms: _447  and  _450
REMARK  185  A    between atoms: _450  and  _451
REMARK  186  A    between atoms: _457  and  _459
REMARK  187  A    between atoms: _459  and  _460
REMARK  188  A    between atoms: _459  and  _462
REMARK  189  A    between atoms: _462  and  _463
REMARK  190  A    between atoms: _466  and  _468
REMARK  191  A    between atoms: _468  and  _469
REMARK  192  A    between atoms: _468  and  _471
REMARK  193  A    between atoms: _474  and  _476
REMARK  194  A    between atoms: _476  and  _477
REMARK  195  A    between atoms: _476  and  _479
REMARK  196  A    between atoms: _479  and  _480
REMARK  197  A    between atoms: _483  and  _485
REMARK  198  A    between atoms: _485  and  _486
REMARK  199  A    between atoms: _485  and  _488
REMARK  200  A    between atoms: _488  and  _489
REMARK  201  A    between atoms: _493  and  _494
REMARK  202  A    between atoms: _499  and  _501
REMARK  203  A    between atoms: _501  and  _502
REMARK  204  A    between atoms: _501  and  _504
REMARK  205  A    between atoms: _507  and  _509
REMARK  206  A    between atoms: _509  and  _510
REMARK  207  A    between atoms: _509  and  _512
REMARK  208  A    between atoms: _512  and  _513
REMARK  209  A    between atoms: _518  and  _520
REMARK  210  A    between atoms: _520  and  _521
REMARK  211  A    between atoms: _520  and  _523
REMARK  212  A    between atoms: _523  and  _524
REMARK  213  A    between atoms: _527  and  _529
REMARK  214  A    between atoms: _529  and  _530
REMARK  215  A    between atoms: _529  and  _532
REMARK  216  A    between atoms: _532  and  _533
REMARK  217  A    between atoms: _536  and  _538
REMARK  218  A    between atoms: _538  and  _539
REMARK  219  A    between atoms: _541  and  _543
REMARK  220  A    between atoms: _543  and  _544
REMARK  221  A    between atoms: _543  and  _546
REMARK  222  A    between atoms: _546  and  _547
REMARK  223  A    between atoms: _547  and  _548
REMARK  224  A    between atoms: _548  and  _549
REMARK                            x       y       z     vdW  Elec       q    Type
REMARK                         _______ _______ _______ _____ _____    ______ ____
ROOT
ATOM      1  O   HOH     1     -25.348  13.263  26.659  0.00  0.00    +0.000 OA
ENDROOT
TORSDOF 0
REMARK  Name = ../refined-set-2016/2o4l/2o4l_pocket.pdb
REMARK  224 active torsions:
REMARK  status: ('A' for Active; 'I' for Inactive)
REMARK    1  A    between atoms: _1  and  _3
REMARK    2  A    between atoms: _3  and  _4
REMARK    3  A    between atoms: _3  and  _6
REMARK    4  A    between atoms: _6  and  _7
REMARK    5  A    between atoms: _7  and  _8
REMARK    6  A    between atoms: _8  and  _9
REMARK    7  A    between atoms: _18  and  _20
REMARK    8  A    between atoms: _20  and  _21
REMARK    9  A    between atoms: _20  and  _23
REMARK   10  A    between atoms: _23  and  _24
REMARK   11  A    between atoms: _27  and  _29
REMARK   12  A    between atoms: _29  and  _30
REMARK   13  A    between atoms: _29  and  _32
REMARK   14  A    between atoms: _32  and  _33
REMARK   15  A    between atoms: _36  and  _38
REMARK   16  A    between atoms: _38  and  _39
REMARK   17  A    between atoms: _38  and  _41
REMARK   18  A    between atoms: _41  and  _42
REMARK   19  A    between atoms: _45  and  _47
REMARK   20  A    between atoms: _47  and  _48
REMARK   21  A    between atoms: _47  and  _50
REMARK   22  A    between atoms: _50  and  _51
REMARK   23  A    between atoms: _54  and  _56
REMARK   24  A    between atoms: _56  and  _57
REMARK   25  A    between atoms: _56  and  _59
REMARK   26  A    between atoms: _59  and  _60
REMARK   27  A    between atoms: _63  and  _65
REMARK   28  A    between atoms: _65  and  _66
REMARK   29  A    between atoms: _68  and  _70
REMARK   30  A    between atoms: _70  and  _71
REMARK   31  A    between atoms: _74  and  _76
REMARK   32  A    between atoms: _76  and  _77
REMARK   33  A    between atoms: _76  and  _79
REMARK   34  A    between atoms: _79  and  _80
REMARK   35  A    between atoms: _83  and  _85
REMARK   36  A    between atoms: _85  and  _86
REMARK   37  A    between atoms: _85  and  _88
REMARK   38  A    between atoms: _88  and  _89
REMARK   39  A    between atoms: _92  and  _94
REMARK   40  A    between atoms: _94  and  _95
REMARK   41  A    between atoms: _94  and  _97
REMARK   42  A    between atoms: _97  and  _98
REMARK   43  A    between atoms: _101  and  _103
REMARK   44  A    between atoms: _103  and  _104
REMARK   45  A    between atoms: _103  and  _106
REMARK   46  A    between atoms: _109  and  _111
REMARK   47  A    between atoms: _111  and  _112
REMARK   48  A    between atoms: _111  and  _114
REMARK   49  A    between atoms: _114  and  _115
REMARK   50  A    between atoms: _115  and  _116
REMARK   51  A    between atoms: _116  and  _117
REMARK   52  A    between atoms: _117  and  _118
REMARK   53  A    between atoms: _122  and  _124
REMARK   54  A    between atoms: _124  and  _125
REMARK   55  A    between atoms: _124  and  _127
REMARK   56  A    between atoms: _127  and  _128
REMARK   57  A    between atoms: _128  and  _129
REMARK   58  A    between atoms: _131  and  _133
REMARK   59  A    between atoms: _133  and  _134
REMARK   60  A    between atoms: _133  and  _136
REMARK   61  A    between atoms: _136  and  _137
REMARK   62  A    between atoms: _140  and  _142
REMARK   63  A    between atoms: _142  and  _143
REMARK   64  A    between atoms: _145  and  _147
REMARK   65  A    between atoms: _147  and  _148
REMARK   66  A    between atoms: _150  and  _152
REMARK   67  A    between atoms: _152  and  _153
REMARK   68  A    between atoms: _152  and  _155
REMARK   69  A    between atoms: _158  and  _160
REMARK   70  A    between atoms: _160  and  _161
REMARK   71  A    between atoms: _163  and  _165
REMARK   72  A    between atoms: _165  and  _166
REMARK   73  A    between atoms: _168  and  _170
REMARK   74  A    between atoms: _170  and  _171
REMARK   75  A    between atoms: _170  and  _173
REMARK   76  A    between atoms: _173  and  _174
REMARK   77  A    between atoms: _180  and  _182
REMARK   78  A    between atoms: _182  and  _183
REMARK   79  A    between atoms: _182  and  _185
REMARK   80  A    between atoms: _185  and  _186
REMARK   81  A    between atoms: _189  and  _191
REMARK   82  A    between atoms: _191  and  _192
REMARK   83  A    between atoms: _191  and  _194
REMARK   84  A    between atoms: _194  and  _195
REMARK   85  A    between atoms: _198  and  _200
REMARK   86  A    between atoms: _200  and  _201
REMARK   87  A    between atoms: _200  and  _203
REMARK   88  A    between atoms: _203  and  _204
REMARK   89  A    between atoms: _208  and  _209
REMARK   90  A    between atoms: _214  and  _216
REMARK   91  A    between atoms: _216  and  _217
REMARK   92  A    between atoms: _216  and  _219
REMARK   93  A    between atoms: _222  and  _224
REMARK   94  A    between atoms: _224  and  _225
REMARK   95  A    between atoms: _224  and  _227
REMARK   96  A    between atoms: _227  and  _228
REMARK   97  A    between atoms: _233  and  _235
REMARK   98  A    between atoms: _235  and  _236
REMARK   99  A    between atoms: _235  and  _238
REMARK  100  A    between atoms: _238  and  _239
REMARK  101  A    between atoms: _242  and  _244
REMARK  102  A    between atoms: _244  and  _245
REMARK  103  A    between atoms: _244  and  _247
REMARK  104  A    between atoms: _247  and  _248
REMARK  105  A    between atoms: _251  and  _253
REMARK  106  A    between atoms: _253  and  _254
REMARK  107  A    between atoms: _256  and  _258
REMARK  108  A    between atoms: _258  and  _259
REMARK  109  A    between atoms: _258  and  _261
REMARK  110  A    between atoms: _261  and  _262
REMARK  111  A    between atoms: _262  and  _263
REMARK  112  A    between atoms: _263  and  _264
REMARK  113  A    between atoms: _273  and  _275
REMARK  114  A    between atoms: _275  and  _276
REMARK  115  A    between atoms: _275  and  _278
REMARK  116  A    between atoms: _278  and  _279
REMARK  117  A    between atoms: _284  and  _286
REMARK  118  A    between atoms: _286  and  _287
REMARK  119  A    between atoms: _286  and  _289
REMARK  120  A    between atoms: _289  and  _290
REMARK  121  A    between atoms: _290  and  _291
REMARK  122  A    between atoms: _291  and  _292
REMARK  123  A    between atoms: _302  and  _303
REMARK  124  A    between atoms: _308  and  _310
REMARK  125  A    between atoms: _310  and  _311
REMARK  126  A    between atoms: _310  and  _313
REMARK  127  A    between atoms: _313  and  _314
REMARK  128  A    between atoms: _317  and  _319
REMARK  129  A    between atoms: _319  and  _320
REMARK  130  A    between atoms: _319  and  _322
REMARK  131  A    between atoms: _322  and  _323
REMARK  132  A    between atoms: _326  and  _328
REMARK  133  A    between atoms: _328  and  _329
REMARK  134  A    between atoms: _328  and  _331
REMARK  135  A    between atoms: _331  and  _332
REMARK  136  A    between atoms: _335  and  _337
REMARK  137  A    between atoms: _337  and  _338
REMARK  138  A    between atoms: _337  and  _340
REMARK  139  A    between atoms: _340  and  _341
REMARK  140  A    between atoms: _344  and  _346
REMARK  141  A    between atoms: _346  and  _347
REMARK  142  A    between atoms: _346  and  _349
REMARK  143  A    between atoms: _349  and  _350
REMARK  144  A    between atoms: _353  and  _355
REMARK  145  A    between atoms: _355  and  _356
REMARK  146  A    between atoms: _358  and  _360
REMARK  147  A    between atoms: _360  and  _361
REMARK  148  A    between atoms: _364  and  _366
REMARK  149  A    between atoms: _366  and  _367
REMARK  150  A    between atoms: _366  and  _369
REMARK  151  A    between atoms: _369  and  _370
REMARK  152  A    between atoms: _373  and  _375
REMARK  153  A    between atoms: _375  and  _376
REMARK  154  A    between atoms: _375  and  _378
REMARK  155  A    between atoms: _378  and  _379
REMARK  156  A    between atoms: _382  and  _384
REMARK  157  A    between atoms: _384  and  _385
REMARK  158  A    between atoms: _384  and  _387
REMARK  159  A    between atoms: _387  and  _388
REMARK  160  A    between atoms: _391  and  _393
REMARK  161  A    between atoms: _393  and  _394
REMARK  162  A    between atoms: _393  and  _396
REMARK  163  A    between atoms: _399  and  _401
REMARK  164  A    between atoms: _401  and  _402
REMARK  165  A    between atoms: _401  and  _404
REMARK  166  A    between atoms: _404  and  _405
REMARK  167  A    between atoms: _408  and  _410
REMARK  168  A    between atoms: _410  and  _411
REMARK  169  A    between atoms: _410  and  _413
REMARK  170  A    between atoms: _413  and  _414
REMARK  171  A    between atoms: _417  and  _419
REMARK  172  A    between atoms: _419  and  _420
REMARK  173  A    between atoms: _422  and  _424
REMARK  174  A    between atoms: _424  and  _425
REMARK  175  A    between atoms: _427  and  _429
REMARK  176  A    between atoms: _429  and  _430
REMARK  177  A    between atoms: _429  and  _432
REMARK  178  A    between atoms: _435  and  _437
REMARK  179  A    between atoms: _437  and  _438
REMARK  180  A    between atoms: _440  and  _442
REMARK  181  A    between atoms: _442  and  _443
REMARK  182  A    between atoms: _445  and  _447
REMARK  183  A    between atoms: _447  and  _448
REMARK  184  A    between atoms: _447  and  _450
REMARK  185  A    between atoms: _450  and  _451
REMARK  186  A    between atoms: _457  and  _459
REMARK  187  A    between atoms: _459  and  _460
REMARK  188  A    between atoms: _459  and  _462
REMARK  189  A    between atoms: _462  and  _463
REMARK  190  A    between atoms: _466  and  _468
REMARK  191  A    between atoms: _468  and  _469
REMARK  192  A    between atoms: _468  and  _471
REMARK  193  A    between atoms: _474  and  _476
REMARK  194  A    between atoms: _476  and  _477
REMARK  195  A    between atoms: _476  and  _479
REMARK  196  A    between atoms: _479  and  _480
REMARK  197  A    between atoms: _483  and  _485
REMARK  198  A    between atoms: _485  and  _486
REMARK  199  A    between atoms: _485  and  _488
REMARK  200  A    between atoms: _488  and  _489
REMARK  201  A    between atoms: _493  and  _494
REMARK  202  A    between atoms: _499  and  _501
REMARK  203  A    between atoms: _501  and  _502
REMARK  204  A    between atoms: _501  and  _504
REMARK  205  A    between atoms: _507  and  _509
REMARK  206  A    between atoms: _509  and  _510
REMARK  207  A    between atoms: _509  and  _512
REMARK  208  A    between atoms: _512  and  _513
REMARK  209  A    between atoms: _518  and  _520
REMARK  210  A    between atoms: _520  and  _521
REMARK  211  A    between atoms: _520  and  _523
REMARK  212  A    between atoms: _523  and  _524
REMARK  213  A    between atoms: _527  and  _529
REMARK  214  A    between atoms: _529  and  _530
REMARK  215  A    between atoms: _529  and  _532
REMARK  216  A    between atoms: _532  and  _533
REMARK  217  A    between atoms: _536  and  _538
REMARK  218  A    between atoms: _538  and  _539
REMARK  219  A    between atoms: _541  and  _543
REMARK  220  A    between atoms: _543  and  _544
REMARK  221  A    between atoms: _543  and  _546
REMARK  222  A    between atoms: _546  and  _547
REMARK  223  A    between atoms: _547  and  _548
REMARK  224  A    between atoms: _548  and  _549
REMARK                            x       y       z     vdW  Elec       q    Type
REMARK                         _______ _______ _______ _____ _____    ______ ____
ROOT
ATOM      1  O   HOH     1      -9.091  29.323  17.169  0.00  0.00    +0.000 OA
ENDROOT
TORSDOF 0
REMARK  Name = ../refined-set-2016/2o4l/2o4l_pocket.pdb
REMARK  224 active torsions:
REMARK  status: ('A' for Active; 'I' for Inactive)
REMARK    1  A    between atoms: _1  and  _3
REMARK    2  A    between atoms: _3  and  _4
REMARK    3  A    between atoms: _3  and  _6
REMARK    4  A    between atoms: _6  and  _7
REMARK    5  A    between atoms: _7  and  _8
REMARK    6  A    between atoms: _8  and  _9
REMARK    7  A    between atoms: _18  and  _20
REMARK    8  A    between atoms: _20  and  _21
REMARK    9  A    between atoms: _20  and  _23
REMARK   10  A    between atoms: _23  and  _24
REMARK   11  A    between atoms: _27  and  _29
REMARK   12  A    between atoms: _29  and  _30
REMARK   13  A    between atoms: _29  and  _32
REMARK   14  A    between atoms: _32  and  _33
REMARK   15  A    between atoms: _36  and  _38
REMARK   16  A    between atoms: _38  and  _39
REMARK   17  A    between atoms: _38  and  _41
REMARK   18  A    between atoms: _41  and  _42
REMARK   19  A    between atoms: _45  and  _47
REMARK   20  A    between atoms: _47  and  _48
REMARK   21  A    between atoms: _47  and  _50
REMARK   22  A    between atoms: _50  and  _51
REMARK   23  A    between atoms: _54  and  _56
REMARK   24  A    between atoms: _56  and  _57
REMARK   25  A    between atoms: _56  and  _59
REMARK   26  A    between atoms: _59  and  _60
REMARK   27  A    between atoms: _63  and  _65
REMARK   28  A    between atoms: _65  and  _66
REMARK   29  A    between atoms: _68  and  _70
REMARK   30  A    between atoms: _70  and  _71
REMARK   31  A    between atoms: _74  and  _76
REMARK   32  A    between atoms: _76  and  _77
REMARK   33  A    between atoms: _76  and  _79
REMARK   34  A    between atoms: _79  and  _80
REMARK   35  A    between atoms: _83  and  _85
REMARK   36  A    between atoms: _85  and  _86
REMARK   37  A    between atoms: _85  and  _88
REMARK   38  A    between atoms: _88  and  _89
REMARK   39  A    between atoms: _92  and  _94
REMARK   40  A    between atoms: _94  and  _95
REMARK   41  A    between atoms: _94  and  _97
REMARK   42  A    between atoms: _97  and  _98
REMARK   43  A    between atoms: _101  and  _103
REMARK   44  A    between atoms: _103  and  _104
REMARK   45  A    between atoms: _103  and  _106
REMARK   46  A    between atoms: _109  and  _111
REMARK   47  A    between atoms: _111  and  _112
REMARK   48  A    between atoms: _111  and  _114
REMARK   49  A    between atoms: _114  and  _115
REMARK   50  A    between atoms: _115  and  _116
REMARK   51  A    between atoms: _116  and  _117
REMARK   52  A    between atoms: _117  and  _118
REMARK   53  A    between atoms: _122  and  _124
REMARK   54  A    between atoms: _124  and  _125
REMARK   55  A    between atoms: _124  and  _127
REMARK   56  A    between atoms: _127  and  _128
REMARK   57  A    between atoms: _128  and  _129
REMARK   58  A    between atoms: _131  and  _133
REMARK   59  A    between atoms: _133  and  _134
REMARK   60  A    between atoms: _133  and  _136
REMARK   61  A    between atoms: _136  and  _137
REMARK   62  A    between atoms: _140  and  _142
REMARK   63  A    between atoms: _142  and  _143
REMARK   64  A    between atoms: _145  and  _147
REMARK   65  A    between atoms: _147  and  _148
REMARK   66  A    between atoms: _150  and  _152
REMARK   67  A    between atoms: _152  and  _153
REMARK   68  A    between atoms: _152  and  _155
REMARK   69  A    between atoms: _158  and  _160
REMARK   70  A    between atoms: _160  and  _161
REMARK   71  A    between atoms: _163  and  _165
REMARK   72  A    between atoms: _165  and  _166
REMARK   73  A    between atoms: _168  and  _170
REMARK   74  A    between atoms: _170  and  _171
REMARK   75  A    between atoms: _170  and  _173
REMARK   76  A    between atoms: _173  and  _174
REMARK   77  A    between atoms: _180  and  _182
REMARK   78  A    between atoms: _182  and  _183
REMARK   79  A    between atoms: _182  and  _185
REMARK   80  A    between atoms: _185  and  _186
REMARK   81  A    between atoms: _189  and  _191
REMARK   82  A    between atoms: _191  and  _192
REMARK   83  A    between atoms: _191  and  _194
REMARK   84  A    between atoms: _194  and  _195
REMARK   85  A    between atoms: _198  and  _200
REMARK   86  A    between atoms: _200  and  _201
REMARK   87  A    between atoms: _200  and  _203
REMARK   88  A    between atoms: _203  and  _204
REMARK   89  A    between atoms: _208  and  _209
REMARK   90  A    between atoms: _214  and  _216
REMARK   91  A    between atoms: _216  and  _217
REMARK   92  A    between atoms: _216  and  _219
REMARK   93  A    between atoms: _222  and  _224
REMARK   94  A    between atoms: _224  and  _225
REMARK   95  A    between atoms: _224  and  _227
REMARK   96  A    between atoms: _227  and  _228
REMARK   97  A    between atoms: _233  and  _235
REMARK   98  A    between atoms: _235  and  _236
REMARK   99  A    between atoms: _235  and  _238
REMARK  100  A    between atoms: _238  and  _239
REMARK  101  A    between atoms: _242  and  _244
REMARK  102  A    between atoms: _244  and  _245
REMARK  103  A    between atoms: _244  and  _247
REMARK  104  A    between atoms: _247  and  _248
REMARK  105  A    between atoms: _251  and  _253
REMARK  106  A    between atoms: _253  and  _254
REMARK  107  A    between atoms: _256  and  _258
REMARK  108  A    between atoms: _258  and  _259
REMARK  109  A    between atoms: _258  and  _261
REMARK  110  A    between atoms: _261  and  _262
REMARK  111  A    between atoms: _262  and  _263
REMARK  112  A    between atoms: _263  and  _264
REMARK  113  A    between atoms: _273  and  _275
REMARK  114  A    between atoms: _275  and  _276
REMARK  115  A    between atoms: _275  and  _278
REMARK  116  A    between atoms: _278  and  _279
REMARK  117  A    between atoms: _284  and  _286
REMARK  118  A    between atoms: _286  and  _287
REMARK  119  A    between atoms: _286  and  _289
REMARK  120  A    between atoms: _289  and  _290
REMARK  121  A    between atoms: _290  and  _291
REMARK  122  A    between atoms: _291  and  _292
REMARK  123  A    between atoms: _302  and  _303
REMARK  124  A    between atoms: _308  and  _310
REMARK  125  A    between atoms: _310  and  _311
REMARK  126  A    between atoms: _310  and  _313
REMARK  127  A    between atoms: _313  and  _314
REMARK  128  A    between atoms: _317  and  _319
REMARK  129  A    between atoms: _319  and  _320
REMARK  130  A    between atoms: _319  and  _322
REMARK  131  A    between atoms: _322  and  _323
REMARK  132  A    between atoms: _326  and  _328
REMARK  133  A    between atoms: _328  and  _329
REMARK  134  A    between atoms: _328  and  _331
REMARK  135  A    between atoms: _331  and  _332
REMARK  136  A    between atoms: _335  and  _337
REMARK  137  A    between atoms: _337  and  _338
REMARK  138  A    between atoms: _337  and  _340
REMARK  139  A    between atoms: _340  and  _341
REMARK  140  A    between atoms: _344  and  _346
REMARK  141  A    between atoms: _346  and  _347
REMARK  142  A    between atoms: _346  and  _349
REMARK  143  A    between atoms: _349  and  _350
REMARK  144  A    between atoms: _353  and  _355
REMARK  145  A    between atoms: _355  and  _356
REMARK  146  A    between atoms: _358  and  _360
REMARK  147  A    between atoms: _360  and  _361
REMARK  148  A    between atoms: _364  and  _366
REMARK  149  A    between atoms: _366  and  _367
REMARK  150  A    between atoms: _366  and  _369
REMARK  151  A    between atoms: _369  and  _370
REMARK  152  A    between atoms: _373  and  _375
REMARK  153  A    between atoms: _375  and  _376
REMARK  154  A    between atoms: _375  and  _378
REMARK  155  A    between atoms: _378  and  _379
REMARK  156  A    between atoms: _382  and  _384
REMARK  157  A    between atoms: _384  and  _385
REMARK  158  A    between atoms: _384  and  _387
REMARK  159  A    between atoms: _387  and  _388
REMARK  160  A    between atoms: _391  and  _393
REMARK  161  A    between atoms: _393  and  _394
REMARK  162  A    between atoms: _393  and  _396
REMARK  163  A    between atoms: _399  and  _401
REMARK  164  A    between atoms: _401  and  _402
REMARK  165  A    between atoms: _401  and  _404
REMARK  166  A    between atoms: _404  and  _405
REMARK  167  A    between atoms: _408  and  _410
REMARK  168  A    between atoms: _410  and  _411
REMARK  169  A    between atoms: _410  and  _413
REMARK  170  A    between atoms: _413  and  _414
REMARK  171  A    between atoms: _417  and  _419
REMARK  172  A    between atoms: _419  and  _420
REMARK  173  A    between atoms: _422  and  _424
REMARK  174  A    between atoms: _424  and  _425
REMARK  175  A    between atoms: _427  and  _429
REMARK  176  A    between atoms: _429  and  _430
REMARK  177  A    between atoms: _429  and  _432
REMARK  178  A    between atoms: _435  and  _437
REMARK  179  A    between atoms: _437  and  _438
REMARK  180  A    between atoms: _440  and  _442
REMARK  181  A    between atoms: _442  and  _443
REMARK  182  A    between atoms: _445  and  _447
REMARK  183  A    between atoms: _447  and  _448
REMARK  184  A    between atoms: _447  and  _450
REMARK  185  A    between atoms: _450  and  _451
REMARK  186  A    between atoms: _457  and  _459
REMARK  187  A    between atoms: _459  and  _460
REMARK  188  A    between atoms: _459  and  _462
REMARK  189  A    between atoms: _462  and  _463
REMARK  190  A    between atoms: _466  and  _468
REMARK  191  A    between atoms: _468  and  _469
REMARK  192  A    between atoms: _468  and  _471
REMARK  193  A    between atoms: _474  and  _476
REMARK  194  A    between atoms: _476  and  _477
REMARK  195  A    between atoms: _476  and  _479
REMARK  196  A    between atoms: _479  and  _480
REMARK  197  A    between atoms: _483  and  _485
REMARK  198  A    between atoms: _485  and  _486
REMARK  199  A    between atoms: _485  and  _488
REMARK  200  A    between atoms: _488  and  _489
REMARK  201  A    between atoms: _493  and  _494
REMARK  202  A    between atoms: _499  and  _501
REMARK  203  A    between atoms: _501  and  _502
REMARK  204  A    between atoms: _501  and  _504
REMARK  205  A    between atoms: _507  and  _509
REMARK  206  A    between atoms: _509  and  _510
REMARK  207  A    between atoms: _509  and  _512
REMARK  208  A    between atoms: _512  and  _513
REMARK  209  A    between atoms: _518  and  _520
REMARK  210  A    between atoms: _520  and  _521
REMARK  211  A    between atoms: _520  and  _523
REMARK  212  A    between atoms: _523  and  _524
REMARK  213  A    between atoms: _527  and  _529
REMARK  214  A    between atoms: _529  and  _530
REMARK  215  A    between atoms: _529  and  _532
REMARK  216  A    between atoms: _532  and  _533
REMARK  217  A    between atoms: _536  and  _538
REMARK  218  A    between atoms: _538  and  _539
REMARK  219  A    between atoms: _541  and  _543
REMARK  220  A    between atoms: _543  and  _544
REMARK  221  A    between atoms: _543  and  _546
REMARK  222  A    between atoms: _546  and  _547
REMARK  223  A    between atoms: _547  and  _548
REMARK  224  A    between atoms: _548  and  _549
REMARK                            x       y       z     vdW  Elec       q    Type
REMARK                         _______ _______ _______ _____ _____    ______ ____
ROOT
ATOM      1  O   HOH     1      -4.329  25.936  17.053  0.00  0.00    +0.000 OA
ENDROOT
TORSDOF 0
REMARK  Name = ../refined-set-2016/2o4l/2o4l_pocket.pdb
REMARK  224 active torsions:
REMARK  status: ('A' for Active; 'I' for Inactive)
REMARK    1  A    between atoms: _1  and  _3
REMARK    2  A    between atoms: _3  and  _4
REMARK    3  A    between atoms: _3  and  _6
REMARK    4  A    between atoms: _6  and  _7
REMARK    5  A    between atoms: _7  and  _8
REMARK    6  A    between atoms: _8  and  _9
REMARK    7  A    between atoms: _18  and  _20
REMARK    8  A    between atoms: _20  and  _21
REMARK    9  A    between atoms: _20  and  _23
REMARK   10  A    between atoms: _23  and  _24
REMARK   11  A    between atoms: _27  and  _29
REMARK   12  A    between atoms: _29  and  _30
REMARK   13  A    between atoms: _29  and  _32
REMARK   14  A    between atoms: _32  and  _33
REMARK   15  A    between atoms: _36  and  _38
REMARK   16  A    between atoms: _38  and  _39
REMARK   17  A    between atoms: _38  and  _41
REMARK   18  A    between atoms: _41  and  _42
REMARK   19  A    between atoms: _45  and  _47
REMARK   20  A    between atoms: _47  and  _48
REMARK   21  A    between atoms: _47  and  _50
REMARK   22  A    between atoms: _50  and  _51
REMARK   23  A    between atoms: _54  and  _56
REMARK   24  A    between atoms: _56  and  _57
REMARK   25  A    between atoms: _56  and  _59
REMARK   26  A    between atoms: _59  and  _60
REMARK   27  A    between atoms: _63  and  _65
REMARK   28  A    between atoms: _65  and  _66
REMARK   29  A    between atoms: _68  and  _70
REMARK   30  A    between atoms: _70  and  _71
REMARK   31  A    between atoms: _74  and  _76
REMARK   32  A    between atoms: _76  and  _77
REMARK   33  A    between atoms: _76  and  _79
REMARK   34  A    between atoms: _79  and  _80
REMARK   35  A    between atoms: _83  and  _85
REMARK   36  A    between atoms: _85  and  _86
REMARK   37  A    between atoms: _85  and  _88
REMARK   38  A    between atoms: _88  and  _89
REMARK   39  A    between atoms: _92  and  _94
REMARK   40  A    between atoms: _94  and  _95
REMARK   41  A    between atoms: _94  and  _97
REMARK   42  A    between atoms: _97  and  _98
REMARK   43  A    between atoms: _101  and  _103
REMARK   44  A    between atoms: _103  and  _104
REMARK   45  A    between atoms: _103  and  _106
REMARK   46  A    between atoms: _109  and  _111
REMARK   47  A    between atoms: _111  and  _112
REMARK   48  A    between atoms: _111  and  _114
REMARK   49  A    between atoms: _114  and  _115
REMARK   50  A    between atoms: _115  and  _116
REMARK   51  A    between atoms: _116  and  _117
REMARK   52  A    between atoms: _117  and  _118
REMARK   53  A    between atoms: _122  and  _124
REMARK   54  A    between atoms: _124  and  _125
REMARK   55  A    between atoms: _124  and  _127
REMARK   56  A    between atoms: _127  and  _128
REMARK   57  A    between atoms: _128  and  _129
REMARK   58  A    between atoms: _131  and  _133
REMARK   59  A    between atoms: _133  and  _134
REMARK   60  A    between atoms: _133  and  _136
REMARK   61  A    between atoms: _136  and  _137
REMARK   62  A    between atoms: _140  and  _142
REMARK   63  A    between atoms: _142  and  _143
REMARK   64  A    between atoms: _145  and  _147
REMARK   65  A    between atoms: _147  and  _148
REMARK   66  A    between atoms: _150  and  _152
REMARK   67  A    between atoms: _152  and  _153
REMARK   68  A    between atoms: _152  and  _155
REMARK   69  A    between atoms: _158  and  _160
REMARK   70  A    between atoms: _160  and  _161
REMARK   71  A    between atoms: _163  and  _165
REMARK   72  A    between atoms: _165  and  _166
REMARK   73  A    between atoms: _168  and  _170
REMARK   74  A    between atoms: _170  and  _171
REMARK   75  A    between atoms: _170  and  _173
REMARK   76  A    between atoms: _173  and  _174
REMARK   77  A    between atoms: _180  and  _182
REMARK   78  A    between atoms: _182  and  _183
REMARK   79  A    between atoms: _182  and  _185
REMARK   80  A    between atoms: _185  and  _186
REMARK   81  A    between atoms: _189  and  _191
REMARK   82  A    between atoms: _191  and  _192
REMARK   83  A    between atoms: _191  and  _194
REMARK   84  A    between atoms: _194  and  _195
REMARK   85  A    between atoms: _198  and  _200
REMARK   86  A    between atoms: _200  and  _201
REMARK   87  A    between atoms: _200  and  _203
REMARK   88  A    between atoms: _203  and  _204
REMARK   89  A    between atoms: _208  and  _209
REMARK   90  A    between atoms: _214  and  _216
REMARK   91  A    between atoms: _216  and  _217
REMARK   92  A    between atoms: _216  and  _219
REMARK   93  A    between atoms: _222  and  _224
REMARK   94  A    between atoms: _224  and  _225
REMARK   95  A    between atoms: _224  and  _227
REMARK   96  A    between atoms: _227  and  _228
REMARK   97  A    between atoms: _233  and  _235
REMARK   98  A    between atoms: _235  and  _236
REMARK   99  A    between atoms: _235  and  _238
REMARK  100  A    between atoms: _238  and  _239
REMARK  101  A    between atoms: _242  and  _244
REMARK  102  A    between atoms: _244  and  _245
REMARK  103  A    between atoms: _244  and  _247
REMARK  104  A    between atoms: _247  and  _248
REMARK  105  A    between atoms: _251  and  _253
REMARK  106  A    between atoms: _253  and  _254
REMARK  107  A    between atoms: _256  and  _258
REMARK  108  A    between atoms: _258  and  _259
REMARK  109  A    between atoms: _258  and  _261
REMARK  110  A    between atoms: _261  and  _262
REMARK  111  A    between atoms: _262  and  _263
REMARK  112  A    between atoms: _263  and  _264
REMARK  113  A    between atoms: _273  and  _275
REMARK  114  A    between atoms: _275  and  _276
REMARK  115  A    between atoms: _275  and  _278
REMARK  116  A    between atoms: _278  and  _279
REMARK  117  A    between atoms: _284  and  _286
REMARK  118  A    between atoms: _286  and  _287
REMARK  119  A    between atoms: _286  and  _289
REMARK  120  A    between atoms: _289  and  _290
REMARK  121  A    between atoms: _290  and  _291
REMARK  122  A    between atoms: _291  and  _292
REMARK  123  A    between atoms: _302  and  _303
REMARK  124  A    between atoms: _308  and  _310
REMARK  125  A    between atoms: _310  and  _311
REMARK  126  A    between atoms: _310  and  _313
REMARK  127  A    between atoms: _313  and  _314
REMARK  128  A    between atoms: _317  and  _319
REMARK  129  A    between atoms: _319  and  _320
REMARK  130  A    between atoms: _319  and  _322
REMARK  131  A    between atoms: _322  and  _323
REMARK  132  A    between atoms: _326  and  _328
REMARK  133  A    between atoms: _328  and  _329
REMARK  134  A    between atoms: _328  and  _331
REMARK  135  A    between atoms: _331  and  _332
REMARK  136  A    between atoms: _335  and  _337
REMARK  137  A    between atoms: _337  and  _338
REMARK  138  A    between atoms: _337  and  _340
REMARK  139  A    between atoms: _340  and  _341
REMARK  140  A    between atoms: _344  and  _346
REMARK  141  A    between atoms: _346  and  _347
REMARK  142  A    between atoms: _346  and  _349
REMARK  143  A    between atoms: _349  and  _350
REMARK  144  A    between atoms: _353  and  _355
REMARK  145  A    between atoms: _355  and  _356
REMARK  146  A    between atoms: _358  and  _360
REMARK  147  A    between atoms: _360  and  _361
REMARK  148  A    between atoms: _364  and  _366
REMARK  149  A    between atoms: _366  and  _367
REMARK  150  A    between atoms: _366  and  _369
REMARK  151  A    between atoms: _369  and  _370
REMARK  152  A    between atoms: _373  and  _375
REMARK  153  A    between atoms: _375  and  _376
REMARK  154  A    between atoms: _375  and  _378
REMARK  155  A    between atoms: _378  and  _379
REMARK  156  A    between atoms: _382  and  _384
REMARK  157  A    between atoms: _384  and  _385
REMARK  158  A    between atoms: _384  and  _387
REMARK  159  A    between atoms: _387  and  _388
REMARK  160  A    between atoms: _391  and  _393
REMARK  161  A    between atoms: _393  and  _394
REMARK  162  A    between atoms: _393  and  _396
REMARK  163  A    between atoms: _399  and  _401
REMARK  164  A    between atoms: _401  and  _402
REMARK  165  A    between atoms: _401  and  _404
REMARK  166  A    between atoms: _404  and  _405
REMARK  167  A    between atoms: _408  and  _410
REMARK  168  A    between atoms: _410  and  _411
REMARK  169  A    between atoms: _410  and  _413
REMARK  170  A    between atoms: _413  and  _414
REMARK  171  A    between atoms: _417  and  _419
REMARK  172  A    between atoms: _419  and  _420
REMARK  173  A    between atoms: _422  and  _424
REMARK  174  A    between atoms: _424  and  _425
REMARK  175  A    between atoms: _427  and  _429
REMARK  176  A    between atoms: _429  and  _430
REMARK  177  A    between atoms: _429  and  _432
REMARK  178  A    between atoms: _435  and  _437
REMARK  179  A    between atoms: _437  and  _438
REMARK  180  A    between atoms: _440  and  _442
REMARK  181  A    between atoms: _442  and  _443
REMARK  182  A    between atoms: _445  and  _447
REMARK  183  A    between atoms: _447  and  _448
REMARK  184  A    between atoms: _447  and  _450
REMARK  185  A    between atoms: _450  and  _451
REMARK  186  A    between atoms: _457  and  _459
REMARK  187  A    between atoms: _459  and  _460
REMARK  188  A    between atoms: _459  and  _462
REMARK  189  A    between atoms: _462  and  _463
REMARK  190  A    between atoms: _466  and  _468
REMARK  191  A    between atoms: _468  and  _469
REMARK  192  A    between atoms: _468  and  _471
REMARK  193  A    between atoms: _474  and  _476
REMARK  194  A    between atoms: _476  and  _477
REMARK  195  A    between atoms: _476  and  _479
REMARK  196  A    between atoms: _479  and  _480
REMARK  197  A    between atoms: _483  and  _485
REMARK  198  A    between atoms: _485  and  _486
REMARK  199  A    between atoms: _485  and  _488
REMARK  200  A    between atoms: _488  and  _489
REMARK  201  A    between atoms: _493  and  _494
REMARK  202  A    between atoms: _499  and  _501
REMARK  203  A    between atoms: _501  and  _502
REMARK  204  A    between atoms: _501  and  _504
REMARK  205  A    between atoms: _507  and  _509
REMARK  206  A    between atoms: _509  and  _510
REMARK  207  A    between atoms: _509  and  _512
REMARK  208  A    between atoms: _512  and  _513
REMARK  209  A    between atoms: _518  and  _520
REMARK  210  A    between atoms: _520  and  _521
REMARK  211  A    between atoms: _520  and  _523
REMARK  212  A    between atoms: _523  and  _524
REMARK  213  A    between atoms: _527  and  _529
REMARK  214  A    between atoms: _529  and  _530
REMARK  215  A    between atoms: _529  and  _532
REMARK  216  A    between atoms: _532  and  _533
REMARK  217  A    between atoms: _536  and  _538
REMARK  218  A    between atoms: _538  and  _539
REMARK  219  A    between atoms: _541  and  _543
REMARK  220  A    between atoms: _543  and  _544
REMARK  221  A    between atoms: _543  and  _546
REMARK  222  A    between atoms: _546  and  _547
REMARK  223  A    between atoms: _547  and  _548
REMARK  224  A    between atoms: _548  and  _549
REMARK                            x       y       z     vdW  Elec       q    Type
REMARK                         _______ _______ _______ _____ _____    ______ ____
ROOT
ATOM      1  O   HOH     1     -26.134  18.071  28.028  0.00  0.00    +0.000 OA
ENDROOT
TORSDOF 0
REMARK  Name = ../refined-set-2016/2o4l/2o4l_pocket.pdb
REMARK  224 active torsions:
REMARK  status: ('A' for Active; 'I' for Inactive)
REMARK    1  A    between atoms: _1  and  _3
REMARK    2  A    between atoms: _3  and  _4
REMARK    3  A    between atoms: _3  and  _6
REMARK    4  A    between atoms: _6  and  _7
REMARK    5  A    between atoms: _7  and  _8
REMARK    6  A    between atoms: _8  and  _9
REMARK    7  A    between atoms: _18  and  _20
REMARK    8  A    between atoms: _20  and  _21
REMARK    9  A    between atoms: _20  and  _23
REMARK   10  A    between atoms: _23  and  _24
REMARK   11  A    between atoms: _27  and  _29
REMARK   12  A    between atoms: _29  and  _30
REMARK   13  A    between atoms: _29  and  _32
REMARK   14  A    between atoms: _32  and  _33
REMARK   15  A    between atoms: _36  and  _38
REMARK   16  A    between atoms: _38  and  _39
REMARK   17  A    between atoms: _38  and  _41
REMARK   18  A    between atoms: _41  and  _42
REMARK   19  A    between atoms: _45  and  _47
REMARK   20  A    between atoms: _47  and  _48
REMARK   21  A    between atoms: _47  and  _50
REMARK   22  A    between atoms: _50  and  _51
REMARK   23  A    between atoms: _54  and  _56
REMARK   24  A    between atoms: _56  and  _57
REMARK   25  A    between atoms: _56  and  _59
REMARK   26  A    between atoms: _59  and  _60
REMARK   27  A    between atoms: _63  and  _65
REMARK   28  A    between atoms: _65  and  _66
REMARK   29  A    between atoms: _68  and  _70
REMARK   30  A    between atoms: _70  and  _71
REMARK   31  A    between atoms: _74  and  _76
REMARK   32  A    between atoms: _76  and  _77
REMARK   33  A    between atoms: _76  and  _79
REMARK   34  A    between atoms: _79  and  _80
REMARK   35  A    between atoms: _83  and  _85
REMARK   36  A    between atoms: _85  and  _86
REMARK   37  A    between atoms: _85  and  _88
REMARK   38  A    between atoms: _88  and  _89
REMARK   39  A    between atoms: _92  and  _94
REMARK   40  A    between atoms: _94  and  _95
REMARK   41  A    between atoms: _94  and  _97
REMARK   42  A    between atoms: _97  and  _98
REMARK   43  A    between atoms: _101  and  _103
REMARK   44  A    between atoms: _103  and  _104
REMARK   45  A    between atoms: _103  and  _106
REMARK   46  A    between atoms: _109  and  _111
REMARK   47  A    between atoms: _111  and  _112
REMARK   48  A    between atoms: _111  and  _114
REMARK   49  A    between atoms: _114  and  _115
REMARK   50  A    between atoms: _115  and  _116
REMARK   51  A    between atoms: _116  and  _117
REMARK   52  A    between atoms: _117  and  _118
REMARK   53  A    between atoms: _122  and  _124
REMARK   54  A    between atoms: _124  and  _125
REMARK   55  A    between atoms: _124  and  _127
REMARK   56  A    between atoms: _127  and  _128
REMARK   57  A    between atoms: _128  and  _129
REMARK   58  A    between atoms: _131  and  _133
REMARK   59  A    between atoms: _133  and  _134
REMARK   60  A    between atoms: _133  and  _136
REMARK   61  A    between atoms: _136  and  _137
REMARK   62  A    between atoms: _140  and  _142
REMARK   63  A    between atoms: _142  and  _143
REMARK   64  A    between atoms: _145  and  _147
REMARK   65  A    between atoms: _147  and  _148
REMARK   66  A    between atoms: _150  and  _152
REMARK   67  A    between atoms: _152  and  _153
REMARK   68  A    between atoms: _152  and  _155
REMARK   69  A    between atoms: _158  and  _160
REMARK   70  A    between atoms: _160  and  _161
REMARK   71  A    between atoms: _163  and  _165
REMARK   72  A    between atoms: _165  and  _166
REMARK   73  A    between atoms: _168  and  _170
REMARK   74  A    between atoms: _170  and  _171
REMARK   75  A    between atoms: _170  and  _173
REMARK   76  A    between atoms: _173  and  _174
REMARK   77  A    between atoms: _180  and  _182
REMARK   78  A    between atoms: _182  and  _183
REMARK   79  A    between atoms: _182  and  _185
REMARK   80  A    between atoms: _185  and  _186
REMARK   81  A    between atoms: _189  and  _191
REMARK   82  A    between atoms: _191  and  _192
REMARK   83  A    between atoms: _191  and  _194
REMARK   84  A    between atoms: _194  and  _195
REMARK   85  A    between atoms: _198  and  _200
REMARK   86  A    between atoms: _200  and  _201
REMARK   87  A    between atoms: _200  and  _203
REMARK   88  A    between atoms: _203  and  _204
REMARK   89  A    between atoms: _208  and  _209
REMARK   90  A    between atoms: _214  and  _216
REMARK   91  A    between atoms: _216  and  _217
REMARK   92  A    between atoms: _216  and  _219
REMARK   93  A    between atoms: _222  and  _224
REMARK   94  A    between atoms: _224  and  _225
REMARK   95  A    between atoms: _224  and  _227
REMARK   96  A    between atoms: _227  and  _228
REMARK   97  A    between atoms: _233  and  _235
REMARK   98  A    between atoms: _235  and  _236
REMARK   99  A    between atoms: _235  and  _238
REMARK  100  A    between atoms: _238  and  _239
REMARK  101  A    between atoms: _242  and  _244
REMARK  102  A    between atoms: _244  and  _245
REMARK  103  A    between atoms: _244  and  _247
REMARK  104  A    between atoms: _247  and  _248
REMARK  105  A    between atoms: _251  and  _253
REMARK  106  A    between atoms: _253  and  _254
REMARK  107  A    between atoms: _256  and  _258
REMARK  108  A    between atoms: _258  and  _259
REMARK  109  A    between atoms: _258  and  _261
REMARK  110  A    between atoms: _261  and  _262
REMARK  111  A    between atoms: _262  and  _263
REMARK  112  A    between atoms: _263  and  _264
REMARK  113  A    between atoms: _273  and  _275
REMARK  114  A    between atoms: _275  and  _276
REMARK  115  A    between atoms: _275  and  _278
REMARK  116  A    between atoms: _278  and  _279
REMARK  117  A    between atoms: _284  and  _286
REMARK  118  A    between atoms: _286  and  _287
REMARK  119  A    between atoms: _286  and  _289
REMARK  120  A    between atoms: _289  and  _290
REMARK  121  A    between atoms: _290  and  _291
REMARK  122  A    between atoms: _291  and  _292
REMARK  123  A    between atoms: _302  and  _303
REMARK  124  A    between atoms: _308  and  _310
REMARK  125  A    between atoms: _310  and  _311
REMARK  126  A    between atoms: _310  and  _313
REMARK  127  A    between atoms: _313  and  _314
REMARK  128  A    between atoms: _317  and  _319
REMARK  129  A    between atoms: _319  and  _320
REMARK  130  A    between atoms: _319  and  _322
REMARK  131  A    between atoms: _322  and  _323
REMARK  132  A    between atoms: _326  and  _328
REMARK  133  A    between atoms: _328  and  _329
REMARK  134  A    between atoms: _328  and  _331
REMARK  135  A    between atoms: _331  and  _332
REMARK  136  A    between atoms: _335  and  _337
REMARK  137  A    between atoms: _337  and  _338
REMARK  138  A    between atoms: _337  and  _340
REMARK  139  A    between atoms: _340  and  _341
REMARK  140  A    between atoms: _344  and  _346
REMARK  141  A    between atoms: _346  and  _347
REMARK  142  A    between atoms: _346  and  _349
REMARK  143  A    between atoms: _349  and  _350
REMARK  144  A    between atoms: _353  and  _355
REMARK  145  A    between atoms: _355  and  _356
REMARK  146  A    between atoms: _358  and  _360
REMARK  147  A    between atoms: _360  and  _361
REMARK  148  A    between atoms: _364  and  _366
REMARK  149  A    between atoms: _366  and  _367
REMARK  150  A    between atoms: _366  and  _369
REMARK  151  A    between atoms: _369  and  _370
REMARK  152  A    between atoms: _373  and  _375
REMARK  153  A    between atoms: _375  and  _376
REMARK  154  A    between atoms: _375  and  _378
REMARK  155  A    between atoms: _378  and  _379
REMARK  156  A    between atoms: _382  and  _384
REMARK  157  A    between atoms: _384  and  _385
REMARK  158  A    between atoms: _384  and  _387
REMARK  159  A    between atoms: _387  and  _388
REMARK  160  A    between atoms: _391  and  _393
REMARK  161  A    between atoms: _393  and  _394
REMARK  162  A    between atoms: _393  and  _396
REMARK  163  A    between atoms: _399  and  _401
REMARK  164  A    between atoms: _401  and  _402
REMARK  165  A    between atoms: _401  and  _404
REMARK  166  A    between atoms: _404  and  _405
REMARK  167  A    between atoms: _408  and  _410
REMARK  168  A    between atoms: _410  and  _411
REMARK  169  A    between atoms: _410  and  _413
REMARK  170  A    between atoms: _413  and  _414
REMARK  171  A    between atoms: _417  and  _419
REMARK  172  A    between atoms: _419  and  _420
REMARK  173  A    between atoms: _422  and  _424
REMARK  174  A    between atoms: _424  and  _425
REMARK  175  A    between atoms: _427  and  _429
REMARK  176  A    between atoms: _429  and  _430
REMARK  177  A    between atoms: _429  and  _432
REMARK  178  A    between atoms: _435  and  _437
REMARK  179  A    between atoms: _437  and  _438
REMARK  180  A    between atoms: _440  and  _442
REMARK  181  A    between atoms: _442  and  _443
REMARK  182  A    between atoms: _445  and  _447
REMARK  183  A    between atoms: _447  and  _448
REMARK  184  A    between atoms: _447  and  _450
REMARK  185  A    between atoms: _450  and  _451
REMARK  186  A    between atoms: _457  and  _459
REMARK  187  A    between atoms: _459  and  _460
REMARK  188  A    between atoms: _459  and  _462
REMARK  189  A    between atoms: _462  and  _463
REMARK  190  A    between atoms: _466  and  _468
REMARK  191  A    between atoms: _468  and  _469
REMARK  192  A    between atoms: _468  and  _471
REMARK  193  A    between atoms: _474  and  _476
REMARK  194  A    between atoms: _476  and  _477
REMARK  195  A    between atoms: _476  and  _479
REMARK  196  A    between atoms: _479  and  _480
REMARK  197  A    between atoms: _483  and  _485
REMARK  198  A    between atoms: _485  and  _486
REMARK  199  A    between atoms: _485  and  _488
REMARK  200  A    between atoms: _488  and  _489
REMARK  201  A    between atoms: _493  and  _494
REMARK  202  A    between atoms: _499  and  _501
REMARK  203  A    between atoms: _501  and  _502
REMARK  204  A    between atoms: _501  and  _504
REMARK  205  A    between atoms: _507  and  _509
REMARK  206  A    between atoms: _509  and  _510
REMARK  207  A    between atoms: _509  and  _512
REMARK  208  A    between atoms: _512  and  _513
REMARK  209  A    between atoms: _518  and  _520
REMARK  210  A    between atoms: _520  and  _521
REMARK  211  A    between atoms: _520  and  _523
REMARK  212  A    between atoms: _523  and  _524
REMARK  213  A    between atoms: _527  and  _529
REMARK  214  A    between atoms: _529  and  _530
REMARK  215  A    between atoms: _529  and  _532
REMARK  216  A    between atoms: _532  and  _533
REMARK  217  A    between atoms: _536  and  _538
REMARK  218  A    between atoms: _538  and  _539
REMARK  219  A    between atoms: _541  and  _543
REMARK  220  A    between atoms: _543  and  _544
REMARK  221  A    between atoms: _543  and  _546
REMARK  222  A    between atoms: _546  and  _547
REMARK  223  A    between atoms: _547  and  _548
REMARK  224  A    between atoms: _548  and  _549
REMARK                            x       y       z     vdW  Elec       q    Type
REMARK                         _______ _______ _______ _____ _____    ______ ____
ROOT
ATOM      1  O   HOH     1     -28.070  15.058  23.498  0.00  0.00    +0.000 OA
ENDROOT
TORSDOF 0
REMARK  Name = ../refined-set-2016/2o4l/2o4l_pocket.pdb
REMARK  224 active torsions:
REMARK  status: ('A' for Active; 'I' for Inactive)
REMARK    1  A    between atoms: _1  and  _3
REMARK    2  A    between atoms: _3  and  _4
REMARK    3  A    between atoms: _3  and  _6
REMARK    4  A    between atoms: _6  and  _7
REMARK    5  A    between atoms: _7  and  _8
REMARK    6  A    between atoms: _8  and  _9
REMARK    7  A    between atoms: _18  and  _20
REMARK    8  A    between atoms: _20  and  _21
REMARK    9  A    between atoms: _20  and  _23
REMARK   10  A    between atoms: _23  and  _24
REMARK   11  A    between atoms: _27  and  _29
REMARK   12  A    between atoms: _29  and  _30
REMARK   13  A    between atoms: _29  and  _32
REMARK   14  A    between atoms: _32  and  _33
REMARK   15  A    between atoms: _36  and  _38
REMARK   16  A    between atoms: _38  and  _39
REMARK   17  A    between atoms: _38  and  _41
REMARK   18  A    between atoms: _41  and  _42
REMARK   19  A    between atoms: _45  and  _47
REMARK   20  A    between atoms: _47  and  _48
REMARK   21  A    between atoms: _47  and  _50
REMARK   22  A    between atoms: _50  and  _51
REMARK   23  A    between atoms: _54  and  _56
REMARK   24  A    between atoms: _56  and  _57
REMARK   25  A    between atoms: _56  and  _59
REMARK   26  A    between atoms: _59  and  _60
REMARK   27  A    between atoms: _63  and  _65
REMARK   28  A    between atoms: _65  and  _66
REMARK   29  A    between atoms: _68  and  _70
REMARK   30  A    between atoms: _70  and  _71
REMARK   31  A    between atoms: _74  and  _76
REMARK   32  A    between atoms: _76  and  _77
REMARK   33  A    between atoms: _76  and  _79
REMARK   34  A    between atoms: _79  and  _80
REMARK   35  A    between atoms: _83  and  _85
REMARK   36  A    between atoms: _85  and  _86
REMARK   37  A    between atoms: _85  and  _88
REMARK   38  A    between atoms: _88  and  _89
REMARK   39  A    between atoms: _92  and  _94
REMARK   40  A    between atoms: _94  and  _95
REMARK   41  A    between atoms: _94  and  _97
REMARK   42  A    between atoms: _97  and  _98
REMARK   43  A    between atoms: _101  and  _103
REMARK   44  A    between atoms: _103  and  _104
REMARK   45  A    between atoms: _103  and  _106
REMARK   46  A    between atoms: _109  and  _111
REMARK   47  A    between atoms: _111  and  _112
REMARK   48  A    between atoms: _111  and  _114
REMARK   49  A    between atoms: _114  and  _115
REMARK   50  A    between atoms: _115  and  _116
REMARK   51  A    between atoms: _116  and  _117
REMARK   52  A    between atoms: _117  and  _118
REMARK   53  A    between atoms: _122  and  _124
REMARK   54  A    between atoms: _124  and  _125
REMARK   55  A    between atoms: _124  and  _127
REMARK   56  A    between atoms: _127  and  _128
REMARK   57  A    between atoms: _128  and  _129
REMARK   58  A    between atoms: _131  and  _133
REMARK   59  A    between atoms: _133  and  _134
REMARK   60  A    between atoms: _133  and  _136
REMARK   61  A    between atoms: _136  and  _137
REMARK   62  A    between atoms: _140  and  _142
REMARK   63  A    between atoms: _142  and  _143
REMARK   64  A    between atoms: _145  and  _147
REMARK   65  A    between atoms: _147  and  _148
REMARK   66  A    between atoms: _150  and  _152
REMARK   67  A    between atoms: _152  and  _153
REMARK   68  A    between atoms: _152  and  _155
REMARK   69  A    between atoms: _158  and  _160
REMARK   70  A    between atoms: _160  and  _161
REMARK   71  A    between atoms: _163  and  _165
REMARK   72  A    between atoms: _165  and  _166
REMARK   73  A    between atoms: _168  and  _170
REMARK   74  A    between atoms: _170  and  _171
REMARK   75  A    between atoms: _170  and  _173
REMARK   76  A    between atoms: _173  and  _174
REMARK   77  A    between atoms: _180  and  _182
REMARK   78  A    between atoms: _182  and  _183
REMARK   79  A    between atoms: _182  and  _185
REMARK   80  A    between atoms: _185  and  _186
REMARK   81  A    between atoms: _189  and  _191
REMARK   82  A    between atoms: _191  and  _192
REMARK   83  A    between atoms: _191  and  _194
REMARK   84  A    between atoms: _194  and  _195
REMARK   85  A    between atoms: _198  and  _200
REMARK   86  A    between atoms: _200  and  _201
REMARK   87  A    between atoms: _200  and  _203
REMARK   88  A    between atoms: _203  and  _204
REMARK   89  A    between atoms: _208  and  _209
REMARK   90  A    between atoms: _214  and  _216
REMARK   91  A    between atoms: _216  and  _217
REMARK   92  A    between atoms: _216  and  _219
REMARK   93  A    between atoms: _222  and  _224
REMARK   94  A    between atoms: _224  and  _225
REMARK   95  A    between atoms: _224  and  _227
REMARK   96  A    between atoms: _227  and  _228
REMARK   97  A    between atoms: _233  and  _235
REMARK   98  A    between atoms: _235  and  _236
REMARK   99  A    between atoms: _235  and  _238
REMARK  100  A    between atoms: _238  and  _239
REMARK  101  A    between atoms: _242  and  _244
REMARK  102  A    between atoms: _244  and  _245
REMARK  103  A    between atoms: _244  and  _247
REMARK  104  A    between atoms: _247  and  _248
REMARK  105  A    between atoms: _251  and  _253
REMARK  106  A    between atoms: _253  and  _254
REMARK  107  A    between atoms: _256  and  _258
REMARK  108  A    between atoms: _258  and  _259
REMARK  109  A    between atoms: _258  and  _261
REMARK  110  A    between atoms: _261  and  _262
REMARK  111  A    between atoms: _262  and  _263
REMARK  112  A    between atoms: _263  and  _264
REMARK  113  A    between atoms: _273  and  _275
REMARK  114  A    between atoms: _275  and  _276
REMARK  115  A    between atoms: _275  and  _278
REMARK  116  A    between atoms: _278  and  _279
REMARK  117  A    between atoms: _284  and  _286
REMARK  118  A    between atoms: _286  and  _287
REMARK  119  A    between atoms: _286  and  _289
REMARK  120  A    between atoms: _289  and  _290
REMARK  121  A    between atoms: _290  and  _291
REMARK  122  A    between atoms: _291  and  _292
REMARK  123  A    between atoms: _302  and  _303
REMARK  124  A    between atoms: _308  and  _310
REMARK  125  A    between atoms: _310  and  _311
REMARK  126  A    between atoms: _310  and  _313
REMARK  127  A    between atoms: _313  and  _314
REMARK  128  A    between atoms: _317  and  _319
REMARK  129  A    between atoms: _319  and  _320
REMARK  130  A    between atoms: _319  and  _322
REMARK  131  A    between atoms: _322  and  _323
REMARK  132  A    between atoms: _326  and  _328
REMARK  133  A    between atoms: _328  and  _329
REMARK  134  A    between atoms: _328  and  _331
REMARK  135  A    between atoms: _331  and  _332
REMARK  136  A    between atoms: _335  and  _337
REMARK  137  A    between atoms: _337  and  _338
REMARK  138  A    between atoms: _337  and  _340
REMARK  139  A    between atoms: _340  and  _341
REMARK  140  A    between atoms: _344  and  _346
REMARK  141  A    between atoms: _346  and  _347
REMARK  142  A    between atoms: _346  and  _349
REMARK  143  A    between atoms: _349  and  _350
REMARK  144  A    between atoms: _353  and  _355
REMARK  145  A    between atoms: _355  and  _356
REMARK  146  A    between atoms: _358  and  _360
REMARK  147  A    between atoms: _360  and  _361
REMARK  148  A    between atoms: _364  and  _366
REMARK  149  A    between atoms: _366  and  _367
REMARK  150  A    between atoms: _366  and  _369
REMARK  151  A    between atoms: _369  and  _370
REMARK  152  A    between atoms: _373  and  _375
REMARK  153  A    between atoms: _375  and  _376
REMARK  154  A    between atoms: _375  and  _378
REMARK  155  A    between atoms: _378  and  _379
REMARK  156  A    between atoms: _382  and  _384
REMARK  157  A    between atoms: _384  and  _385
REMARK  158  A    between atoms: _384  and  _387
REMARK  159  A    between atoms: _387  and  _388
REMARK  160  A    between atoms: _391  and  _393
REMARK  161  A    between atoms: _393  and  _394
REMARK  162  A    between atoms: _393  and  _396
REMARK  163  A    between atoms: _399  and  _401
REMARK  164  A    between atoms: _401  and  _402
REMARK  165  A    between atoms: _401  and  _404
REMARK  166  A    between atoms: _404  and  _405
REMARK  167  A    between atoms: _408  and  _410
REMARK  168  A    between atoms: _410  and  _411
REMARK  169  A    between atoms: _410  and  _413
REMARK  170  A    between atoms: _413  and  _414
REMARK  171  A    between atoms: _417  and  _419
REMARK  172  A    between atoms: _419  and  _420
REMARK  173  A    between atoms: _422  and  _424
REMARK  174  A    between atoms: _424  and  _425
REMARK  175  A    between atoms: _427  and  _429
REMARK  176  A    between atoms: _429  and  _430
REMARK  177  A    between atoms: _429  and  _432
REMARK  178  A    between atoms: _435  and  _437
REMARK  179  A    between atoms: _437  and  _438
REMARK  180  A    between atoms: _440  and  _442
REMARK  181  A    between atoms: _442  and  _443
REMARK  182  A    between atoms: _445  and  _447
REMARK  183  A    between atoms: _447  and  _448
REMARK  184  A    between atoms: _447  and  _450
REMARK  185  A    between atoms: _450  and  _451
REMARK  186  A    between atoms: _457  and  _459
REMARK  187  A    between atoms: _459  and  _460
REMARK  188  A    between atoms: _459  and  _462
REMARK  189  A    between atoms: _462  and  _463
REMARK  190  A    between atoms: _466  and  _468
REMARK  191  A    between atoms: _468  and  _469
REMARK  192  A    between atoms: _468  and  _471
REMARK  193  A    between atoms: _474  and  _476
REMARK  194  A    between atoms: _476  and  _477
REMARK  195  A    between atoms: _476  and  _479
REMARK  196  A    between atoms: _479  and  _480
REMARK  197  A    between atoms: _483  and  _485
REMARK  198  A    between atoms: _485  and  _486
REMARK  199  A    between atoms: _485  and  _488
REMARK  200  A    between atoms: _488  and  _489
REMARK  201  A    between atoms: _493  and  _494
REMARK  202  A    between atoms: _499  and  _501
REMARK  203  A    between atoms: _501  and  _502
REMARK  204  A    between atoms: _501  and  _504
REMARK  205  A    between atoms: _507  and  _509
REMARK  206  A    between atoms: _509  and  _510
REMARK  207  A    between atoms: _509  and  _512
REMARK  208  A    between atoms: _512  and  _513
REMARK  209  A    between atoms: _518  and  _520
REMARK  210  A    between atoms: _520  and  _521
REMARK  211  A    between atoms: _520  and  _523
REMARK  212  A    between atoms: _523  and  _524
REMARK  213  A    between atoms: _527  and  _529
REMARK  214  A    between atoms: _529  and  _530
REMARK  215  A    between atoms: _529  and  _532
REMARK  216  A    between atoms: _532  and  _533
REMARK  217  A    between atoms: _536  and  _538
REMARK  218  A    between atoms: _538  and  _539
REMARK  219  A    between atoms: _541  and  _543
REMARK  220  A    between atoms: _543  and  _544
REMARK  221  A    between atoms: _543  and  _546
REMARK  222  A    between atoms: _546  and  _547
REMARK  223  A    between atoms: _547  and  _548
REMARK  224  A    between atoms: _548  and  _549
REMARK                            x       y       z     vdW  Elec       q    Type
REMARK                         _______ _______ _______ _____ _____    ______ ____
ROOT
ATOM      1  O   HOH     1      -7.100  29.447  15.307  0.00  0.00    +0.000 OA
ENDROOT
TORSDOF 0
REMARK  Name = ../refined-set-2016/2o4l/2o4l_pocket.pdb
REMARK  224 active torsions:
REMARK  status: ('A' for Active; 'I' for Inactive)
REMARK    1  A    between atoms: _1  and  _3
REMARK    2  A    between atoms: _3  and  _4
REMARK    3  A    between atoms: _3  and  _6
REMARK    4  A    between atoms: _6  and  _7
REMARK    5  A    between atoms: _7  and  _8
REMARK    6  A    between atoms: _8  and  _9
REMARK    7  A    between atoms: _18  and  _20
REMARK    8  A    between atoms: _20  and  _21
REMARK    9  A    between atoms: _20  and  _23
REMARK   10  A    between atoms: _23  and  _24
REMARK   11  A    between atoms: _27  and  _29
REMARK   12  A    between atoms: _29  and  _30
REMARK   13  A    between atoms: _29  and  _32
REMARK   14  A    between atoms: _32  and  _33
REMARK   15  A    between atoms: _36  and  _38
REMARK   16  A    between atoms: _38  and  _39
REMARK   17  A    between atoms: _38  and  _41
REMARK   18  A    between atoms: _41  and  _42
REMARK   19  A    between atoms: _45  and  _47
REMARK   20  A    between atoms: _47  and  _48
REMARK   21  A    between atoms: _47  and  _50
REMARK   22  A    between atoms: _50  and  _51
REMARK   23  A    between atoms: _54  and  _56
REMARK   24  A    between atoms: _56  and  _57
REMARK   25  A    between atoms: _56  and  _59
REMARK   26  A    between atoms: _59  and  _60
REMARK   27  A    between atoms: _63  and  _65
REMARK   28  A    between atoms: _65  and  _66
REMARK   29  A    between atoms: _68  and  _70
REMARK   30  A    between atoms: _70  and  _71
REMARK   31  A    between atoms: _74  and  _76
REMARK   32  A    between atoms: _76  and  _77
REMARK   33  A    between atoms: _76  and  _79
REMARK   34  A    between atoms: _79  and  _80
REMARK   35  A    between atoms: _83  and  _85
REMARK   36  A    between atoms: _85  and  _86
REMARK   37  A    between atoms: _85  and  _88
REMARK   38  A    between atoms: _88  and  _89
REMARK   39  A    between atoms: _92  and  _94
REMARK   40  A    between atoms: _94  and  _95
REMARK   41  A    between atoms: _94  and  _97
REMARK   42  A    between atoms: _97  and  _98
REMARK   43  A    between atoms: _101  and  _103
REMARK   44  A    between atoms: _103  and  _104
REMARK   45  A    between atoms: _103  and  _106
REMARK   46  A    between atoms: _109  and  _111
REMARK   47  A    between atoms: _111  and  _112
REMARK   48  A    between atoms: _111  and  _114
REMARK   49  A    between atoms: _114  and  _115
REMARK   50  A    between atoms: _115  and  _116
REMARK   51  A    between atoms: _116  and  _117
REMARK   52  A    between atoms: _117  and  _118
REMARK   53  A    between atoms: _122  and  _124
REMARK   54  A    between atoms: _124  and  _125
REMARK   55  A    between atoms: _124  and  _127
REMARK   56  A    between atoms: _127  and  _128
REMARK   57  A    between atoms: _128  and  _129
REMARK   58  A    between atoms: _131  and  _133
REMARK   59  A    between atoms: _133  and  _134
REMARK   60  A    between atoms: _133  and  _136
REMARK   61  A    between atoms: _136  and  _137
REMARK   62  A    between atoms: _140  and  _142
REMARK   63  A    between atoms: _142  and  _143
REMARK   64  A    between atoms: _145  and  _147
REMARK   65  A    between atoms: _147  and  _148
REMARK   66  A    between atoms: _150  and  _152
REMARK   67  A    between atoms: _152  and  _153
REMARK   68  A    between atoms: _152  and  _155
REMARK   69  A    between atoms: _158  and  _160
REMARK   70  A    between atoms: _160  and  _161
REMARK   71  A    between atoms: _163  and  _165
REMARK   72  A    between atoms: _165  and  _166
REMARK   73  A    between atoms: _168  and  _170
REMARK   74  A    between atoms: _170  and  _171
REMARK   75  A    between atoms: _170  and  _173
REMARK   76  A    between atoms: _173  and  _174
REMARK   77  A    between atoms: _180  and  _182
REMARK   78  A    between atoms: _182  and  _183
REMARK   79  A    between atoms: _182  and  _185
REMARK   80  A    between atoms: _185  and  _186
REMARK   81  A    between atoms: _189  and  _191
REMARK   82  A    between atoms: _191  and  _192
REMARK   83  A    between atoms: _191  and  _194
REMARK   84  A    between atoms: _194  and  _195
REMARK   85  A    between atoms: _198  and  _200
REMARK   86  A    between atoms: _200  and  _201
REMARK   87  A    between atoms: _200  and  _203
REMARK   88  A    between atoms: _203  and  _204
REMARK   89  A    between atoms: _208  and  _209
REMARK   90  A    between atoms: _214  and  _216
REMARK   91  A    between atoms: _216  and  _217
REMARK   92  A    between atoms: _216  and  _219
REMARK   93  A    between atoms: _222  and  _224
REMARK   94  A    between atoms: _224  and  _225
REMARK   95  A    between atoms: _224  and  _227
REMARK   96  A    between atoms: _227  and  _228
REMARK   97  A    between atoms: _233  and  _235
REMARK   98  A    between atoms: _235  and  _236
REMARK   99  A    between atoms: _235  and  _238
REMARK  100  A    between atoms: _238  and  _239
REMARK  101  A    between atoms: _242  and  _244
REMARK  102  A    between atoms: _244  and  _245
REMARK  103  A    between atoms: _244  and  _247
REMARK  104  A    between atoms: _247  and  _248
REMARK  105  A    between atoms: _251  and  _253
REMARK  106  A    between atoms: _253  and  _254
REMARK  107  A    between atoms: _256  and  _258
REMARK  108  A    between atoms: _258  and  _259
REMARK  109  A    between atoms: _258  and  _261
REMARK  110  A    between atoms: _261  and  _262
REMARK  111  A    between atoms: _262  and  _263
REMARK  112  A    between atoms: _263  and  _264
REMARK  113  A    between atoms: _273  and  _275
REMARK  114  A    between atoms: _275  and  _276
REMARK  115  A    between atoms: _275  and  _278
REMARK  116  A    between atoms: _278  and  _279
REMARK  117  A    between atoms: _284  and  _286
REMARK  118  A    between atoms: _286  and  _287
REMARK  119  A    between atoms: _286  and  _289
REMARK  120  A    between atoms: _289  and  _290
REMARK  121  A    between atoms: _290  and  _291
REMARK  122  A    between atoms: _291  and  _292
REMARK  123  A    between atoms: _302  and  _303
REMARK  124  A    between atoms: _308  and  _310
REMARK  125  A    between atoms: _310  and  _311
REMARK  126  A    between atoms: _310  and  _313
REMARK  127  A    between atoms: _313  and  _314
REMARK  128  A    between atoms: _317  and  _319
REMARK  129  A    between atoms: _319  and  _320
REMARK  130  A    between atoms: _319  and  _322
REMARK  131  A    between atoms: _322  and  _323
REMARK  132  A    between atoms: _326  and  _328
REMARK  133  A    between atoms: _328  and  _329
REMARK  134  A    between atoms: _328  and  _331
REMARK  135  A    between atoms: _331  and  _332
REMARK  136  A    between atoms: _335  and  _337
REMARK  137  A    between atoms: _337  and  _338
REMARK  138  A    between atoms: _337  and  _340
REMARK  139  A    between atoms: _340  and  _341
REMARK  140  A    between atoms: _344  and  _346
REMARK  141  A    between atoms: _346  and  _347
REMARK  142  A    between atoms: _346  and  _349
REMARK  143  A    between atoms: _349  and  _350
REMARK  144  A    between atoms: _353  and  _355
REMARK  145  A    between atoms: _355  and  _356
REMARK  146  A    between atoms: _358  and  _360
REMARK  147  A    between atoms: _360  and  _361
REMARK  148  A    between atoms: _364  and  _366
REMARK  149  A    between atoms: _366  and  _367
REMARK  150  A    between atoms: _366  and  _369
REMARK  151  A    between atoms: _369  and  _370
REMARK  152  A    between atoms: _373  and  _375
REMARK  153  A    between atoms: _375  and  _376
REMARK  154  A    between atoms: _375  and  _378
REMARK  155  A    between atoms: _378  and  _379
REMARK  156  A    between atoms: _382  and  _384
REMARK  157  A    between atoms: _384  and  _385
REMARK  158  A    between atoms: _384  and  _387
REMARK  159  A    between atoms: _387  and  _388
REMARK  160  A    between atoms: _391  and  _393
REMARK  161  A    between atoms: _393  and  _394
REMARK  162  A    between atoms: _393  and  _396
REMARK  163  A    between atoms: _399  and  _401
REMARK  164  A    between atoms: _401  and  _402
REMARK  165  A    between atoms: _401  and  _404
REMARK  166  A    between atoms: _404  and  _405
REMARK  167  A    between atoms: _408  and  _410
REMARK  168  A    between atoms: _410  and  _411
REMARK  169  A    between atoms: _410  and  _413
REMARK  170  A    between atoms: _413  and  _414
REMARK  171  A    between atoms: _417  and  _419
REMARK  172  A    between atoms: _419  and  _420
REMARK  173  A    between atoms: _422  and  _424
REMARK  174  A    between atoms: _424  and  _425
REMARK  175  A    between atoms: _427  and  _429
REMARK  176  A    between atoms: _429  and  _430
REMARK  177  A    between atoms: _429  and  _432
REMARK  178  A    between atoms: _435  and  _437
REMARK  179  A    between atoms: _437  and  _438
REMARK  180  A    between atoms: _440  and  _442
REMARK  181  A    between atoms: _442  and  _443
REMARK  182  A    between atoms: _445  and  _447
REMARK  183  A    between atoms: _447  and  _448
REMARK  184  A    between atoms: _447  and  _450
REMARK  185  A    between atoms: _450  and  _451
REMARK  186  A    between atoms: _457  and  _459
REMARK  187  A    between atoms: _459  and  _460
REMARK  188  A    between atoms: _459  and  _462
REMARK  189  A    between atoms: _462  and  _463
REMARK  190  A    between atoms: _466  and  _468
REMARK  191  A    between atoms: _468  and  _469
REMARK  192  A    between atoms: _468  and  _471
REMARK  193  A    between atoms: _474  and  _476
REMARK  194  A    between atoms: _476  and  _477
REMARK  195  A    between atoms: _476  and  _479
REMARK  196  A    between atoms: _479  and  _480
REMARK  197  A    between atoms: _483  and  _485
REMARK  198  A    between atoms: _485  and  _486
REMARK  199  A    between atoms: _485  and  _488
REMARK  200  A    between atoms: _488  and  _489
REMARK  201  A    between atoms: _493  and  _494
REMARK  202  A    between atoms: _499  and  _501
REMARK  203  A    between atoms: _501  and  _502
REMARK  204  A    between atoms: _501  and  _504
REMARK  205  A    between atoms: _507  and  _509
REMARK  206  A    between atoms: _509  and  _510
REMARK  207  A    between atoms: _509  and  _512
REMARK  208  A    between atoms: _512  and  _513
REMARK  209  A    between atoms: _518  and  _520
REMARK  210  A    between atoms: _520  and  _521
REMARK  211  A    between atoms: _520  and  _523
REMARK  212  A    between atoms: _523  and  _524
REMARK  213  A    between atoms: _527  and  _529
REMARK  214  A    between atoms: _529  and  _530
REMARK  215  A    between atoms: _529  and  _532
REMARK  216  A    between atoms: _532  and  _533
REMARK  217  A    between atoms: _536  and  _538
REMARK  218  A    between atoms: _538  and  _539
REMARK  219  A    between atoms: _541  and  _543
REMARK  220  A    between atoms: _543  and  _544
REMARK  221  A    between atoms: _543  and  _546
REMARK  222  A    between atoms: _546  and  _547
REMARK  223  A    between atoms: _547  and  _548
REMARK  224  A    between atoms: _548  and  _549
REMARK                            x       y       z     vdW  Elec       q    Type
REMARK                         _______ _______ _______ _____ _____    ______ ____
ROOT
ATOM      1  O   HOH     1     -23.896   9.915  26.791  0.00  0.00    +0.000 OA
ENDROOT
TORSDOF 0
REMARK  Name = ../refined-set-2016/2o4l/2o4l_pocket.pdb
REMARK  224 active torsions:
REMARK  status: ('A' for Active; 'I' for Inactive)
REMARK    1  A    between atoms: _1  and  _3
REMARK    2  A    between atoms: _3  and  _4
REMARK    3  A    between atoms: _3  and  _6
REMARK    4  A    between atoms: _6  and  _7
REMARK    5  A    between atoms: _7  and  _8
REMARK    6  A    between atoms: _8  and  _9
REMARK    7  A    between atoms: _18  and  _20
REMARK    8  A    between atoms: _20  and  _21
REMARK    9  A    between atoms: _20  and  _23
REMARK   10  A    between atoms: _23  and  _24
REMARK   11  A    between atoms: _27  and  _29
REMARK   12  A    between atoms: _29  and  _30
REMARK   13  A    between atoms: _29  and  _32
REMARK   14  A    between atoms: _32  and  _33
REMARK   15  A    between atoms: _36  and  _38
REMARK   16  A    between atoms: _38  and  _39
REMARK   17  A    between atoms: _38  and  _41
REMARK   18  A    between atoms: _41  and  _42
REMARK   19  A    between atoms: _45  and  _47
REMARK   20  A    between atoms: _47  and  _48
REMARK   21  A    between atoms: _47  and  _50
REMARK   22  A    between atoms: _50  and  _51
REMARK   23  A    between atoms: _54  and  _56
REMARK   24  A    between atoms: _56  and  _57
REMARK   25  A    between atoms: _56  and  _59
REMARK   26  A    between atoms: _59  and  _60
REMARK   27  A    between atoms: _63  and  _65
REMARK   28  A    between atoms: _65  and  _66
REMARK   29  A    between atoms: _68  and  _70
REMARK   30  A    between atoms: _70  and  _71
REMARK   31  A    between atoms: _74  and  _76
REMARK   32  A    between atoms: _76  and  _77
REMARK   33  A    between atoms: _76  and  _79
REMARK   34  A    between atoms: _79  and  _80
REMARK   35  A    between atoms: _83  and  _85
REMARK   36  A    between atoms: _85  and  _86
REMARK   37  A    between atoms: _85  and  _88
REMARK   38  A    between atoms: _88  and  _89
REMARK   39  A    between atoms: _92  and  _94
REMARK   40  A    between atoms: _94  and  _95
REMARK   41  A    between atoms: _94  and  _97
REMARK   42  A    between atoms: _97  and  _98
REMARK   43  A    between atoms: _101  and  _103
REMARK   44  A    between atoms: _103  and  _104
REMARK   45  A    between atoms: _103  and  _106
REMARK   46  A    between atoms: _109  and  _111
REMARK   47  A    between atoms: _111  and  _112
REMARK   48  A    between atoms: _111  and  _114
REMARK   49  A    between atoms: _114  and  _115
REMARK   50  A    between atoms: _115  and  _116
REMARK   51  A    between atoms: _116  and  _117
REMARK   52  A    between atoms: _117  and  _118
REMARK   53  A    between atoms: _122  and  _124
REMARK   54  A    between atoms: _124  and  _125
REMARK   55  A    between atoms: _124  and  _127
REMARK   56  A    between atoms: _127  and  _128
REMARK   57  A    between atoms: _128  and  _129
REMARK   58  A    between atoms: _131  and  _133
REMARK   59  A    between atoms: _133  and  _134
REMARK   60  A    between atoms: _133  and  _136
REMARK   61  A    between atoms: _136  and  _137
REMARK   62  A    between atoms: _140  and  _142
REMARK   63  A    between atoms: _142  and  _143
REMARK   64  A    between atoms: _145  and  _147
REMARK   65  A    between atoms: _147  and  _148
REMARK   66  A    between atoms: _150  and  _152
REMARK   67  A    between atoms: _152  and  _153
REMARK   68  A    between atoms: _152  and  _155
REMARK   69  A    between atoms: _158  and  _160
REMARK   70  A    between atoms: _160  and  _161
REMARK   71  A    between atoms: _163  and  _165
REMARK   72  A    between atoms: _165  and  _166
REMARK   73  A    between atoms: _168  and  _170
REMARK   74  A    between atoms: _170  and  _171
REMARK   75  A    between atoms: _170  and  _173
REMARK   76  A    between atoms: _173  and  _174
REMARK   77  A    between atoms: _180  and  _182
REMARK   78  A    between atoms: _182  and  _183
REMARK   79  A    between atoms: _182  and  _185
REMARK   80  A    between atoms: _185  and  _186
REMARK   81  A    between atoms: _189  and  _191
REMARK   82  A    between atoms: _191  and  _192
REMARK   83  A    between atoms: _191  and  _194
REMARK   84  A    between atoms: _194  and  _195
REMARK   85  A    between atoms: _198  and  _200
REMARK   86  A    between atoms: _200  and  _201
REMARK   87  A    between atoms: _200  and  _203
REMARK   88  A    between atoms: _203  and  _204
REMARK   89  A    between atoms: _208  and  _209
REMARK   90  A    between atoms: _214  and  _216
REMARK   91  A    between atoms: _216  and  _217
REMARK   92  A    between atoms: _216  and  _219
REMARK   93  A    between atoms: _222  and  _224
REMARK   94  A    between atoms: _224  and  _225
REMARK   95  A    between atoms: _224  and  _227
REMARK   96  A    between atoms: _227  and  _228
REMARK   97  A    between atoms: _233  and  _235
REMARK   98  A    between atoms: _235  and  _236
REMARK   99  A    between atoms: _235  and  _238
REMARK  100  A    between atoms: _238  and  _239
REMARK  101  A    between atoms: _242  and  _244
REMARK  102  A    between atoms: _244  and  _245
REMARK  103  A    between atoms: _244  and  _247
REMARK  104  A    between atoms: _247  and  _248
REMARK  105  A    between atoms: _251  and  _253
REMARK  106  A    between atoms: _253  and  _254
REMARK  107  A    between atoms: _256  and  _258
REMARK  108  A    between atoms: _258  and  _259
REMARK  109  A    between atoms: _258  and  _261
REMARK  110  A    between atoms: _261  and  _262
REMARK  111  A    between atoms: _262  and  _263
REMARK  112  A    between atoms: _263  and  _264
REMARK  113  A    between atoms: _273  and  _275
REMARK  114  A    between atoms: _275  and  _276
REMARK  115  A    between atoms: _275  and  _278
REMARK  116  A    between atoms: _278  and  _279
REMARK  117  A    between atoms: _284  and  _286
REMARK  118  A    between atoms: _286  and  _287
REMARK  119  A    between atoms: _286  and  _289
REMARK  120  A    between atoms: _289  and  _290
REMARK  121  A    between atoms: _290  and  _291
REMARK  122  A    between atoms: _291  and  _292
REMARK  123  A    between atoms: _302  and  _303
REMARK  124  A    between atoms: _308  and  _310
REMARK  125  A    between atoms: _310  and  _311
REMARK  126  A    between atoms: _310  and  _313
REMARK  127  A    between atoms: _313  and  _314
REMARK  128  A    between atoms: _317  and  _319
REMARK  129  A    between atoms: _319  and  _320
REMARK  130  A    between atoms: _319  and  _322
REMARK  131  A    between atoms: _322  and  _323
REMARK  132  A    between atoms: _326  and  _328
REMARK  133  A    between atoms: _328  and  _329
REMARK  134  A    between atoms: _328  and  _331
REMARK  135  A    between atoms: _331  and  _332
REMARK  136  A    between atoms: _335  and  _337
REMARK  137  A    between atoms: _337  and  _338
REMARK  138  A    between atoms: _337  and  _340
REMARK  139  A    between atoms: _340  and  _341
REMARK  140  A    between atoms: _344  and  _346
REMARK  141  A    between atoms: _346  and  _347
REMARK  142  A    between atoms: _346  and  _349
REMARK  143  A    between atoms: _349  and  _350
REMARK  144  A    between atoms: _353  and  _355
REMARK  145  A    between atoms: _355  and  _356
REMARK  146  A    between atoms: _358  and  _360
REMARK  147  A    between atoms: _360  and  _361
REMARK  148  A    between atoms: _364  and  _366
REMARK  149  A    between atoms: _366  and  _367
REMARK  150  A    between atoms: _366  and  _369
REMARK  151  A    between atoms: _369  and  _370
REMARK  152  A    between atoms: _373  and  _375
REMARK  153  A    between atoms: _375  and  _376
REMARK  154  A    between atoms: _375  and  _378
REMARK  155  A    between atoms: _378  and  _379
REMARK  156  A    between atoms: _382  and  _384
REMARK  157  A    between atoms: _384  and  _385
REMARK  158  A    between atoms: _384  and  _387
REMARK  159  A    between atoms: _387  and  _388
REMARK  160  A    between atoms: _391  and  _393
REMARK  161  A    between atoms: _393  and  _394
REMARK  162  A    between atoms: _393  and  _396
REMARK  163  A    between atoms: _399  and  _401
REMARK  164  A    between atoms: _401  and  _402
REMARK  165  A    between atoms: _401  and  _404
REMARK  166  A    between atoms: _404  and  _405
REMARK  167  A    between atoms: _408  and  _410
REMARK  168  A    between atoms: _410  and  _411
REMARK  169  A    between atoms: _410  and  _413
REMARK  170  A    between atoms: _413  and  _414
REMARK  171  A    between atoms: _417  and  _419
REMARK  172  A    between atoms: _419  and  _420
REMARK  173  A    between atoms: _422  and  _424
REMARK  174  A    between atoms: _424  and  _425
REMARK  175  A    between atoms: _427  and  _429
REMARK  176  A    between atoms: _429  and  _430
REMARK  177  A    between atoms: _429  and  _432
REMARK  178  A    between atoms: _435  and  _437
REMARK  179  A    between atoms: _437  and  _438
REMARK  180  A    between atoms: _440  and  _442
REMARK  181  A    between atoms: _442  and  _443
REMARK  182  A    between atoms: _445  and  _447
REMARK  183  A    between atoms: _447  and  _448
REMARK  184  A    between atoms: _447  and  _450
REMARK  185  A    between atoms: _450  and  _451
REMARK  186  A    between atoms: _457  and  _459
REMARK  187  A    between atoms: _459  and  _460
REMARK  188  A    between atoms: _459  and  _462
REMARK  189  A    between atoms: _462  and  _463
REMARK  190  A    between atoms: _466  and  _468
REMARK  191  A    between atoms: _468  and  _469
REMARK  192  A    between atoms: _468  and  _471
REMARK  193  A    between atoms: _474  and  _476
REMARK  194  A    between atoms: _476  and  _477
REMARK  195  A    between atoms: _476  and  _479
REMARK  196  A    between atoms: _479  and  _480
REMARK  197  A    between atoms: _483  and  _485
REMARK  198  A    between atoms: _485  and  _486
REMARK  199  A    between atoms: _485  and  _488
REMARK  200  A    between atoms: _488  and  _489
REMARK  201  A    between atoms: _493  and  _494
REMARK  202  A    between atoms: _499  and  _501
REMARK  203  A    between atoms: _501  and  _502
REMARK  204  A    between atoms: _501  and  _504
REMARK  205  A    between atoms: _507  and  _509
REMARK  206  A    between atoms: _509  and  _510
REMARK  207  A    between atoms: _509  and  _512
REMARK  208  A    between atoms: _512  and  _513
REMARK  209  A    between atoms: _518  and  _520
REMARK  210  A    between atoms: _520  and  _521
REMARK  211  A    between atoms: _520  and  _523
REMARK  212  A    between atoms: _523  and  _524
REMARK  213  A    between atoms: _527  and  _529
REMARK  214  A    between atoms: _529  and  _530
REMARK  215  A    between atoms: _529  and  _532
REMARK  216  A    between atoms: _532  and  _533
REMARK  217  A    between atoms: _536  and  _538
REMARK  218  A    between atoms: _538  and  _539
REMARK  219  A    between atoms: _541  and  _543
REMARK  220  A    between atoms: _543  and  _544
REMARK  221  A    between atoms: _543  and  _546
REMARK  222  A    between atoms: _546  and  _547
REMARK  223  A    between atoms: _547  and  _548
REMARK  224  A    between atoms: _548  and  _549
REMARK                            x       y       z     vdW  Elec       q    Type
REMARK                         _______ _______ _______ _____ _____    ______ ____
ROOT
ATOM      1  O   HOH     1     -26.395  22.697  27.011  0.00  0.00    +0.000 OA
ENDROOT
TORSDOF 0
REMARK  Name = ../refined-set-2016/2o4l/2o4l_pocket.pdb
REMARK  224 active torsions:
REMARK  status: ('A' for Active; 'I' for Inactive)
REMARK    1  A    between atoms: _1  and  _3
REMARK    2  A    between atoms: _3  and  _4
REMARK    3  A    between atoms: _3  and  _6
REMARK    4  A    between atoms: _6  and  _7
REMARK    5  A    between atoms: _7  and  _8
REMARK    6  A    between atoms: _8  and  _9
REMARK    7  A    between atoms: _18  and  _20
REMARK    8  A    between atoms: _20  and  _21
REMARK    9  A    between atoms: _20  and  _23
REMARK   10  A    between atoms: _23  and  _24
REMARK   11  A    between atoms: _27  and  _29
REMARK   12  A    between atoms: _29  and  _30
REMARK   13  A    between atoms: _29  and  _32
REMARK   14  A    between atoms: _32  and  _33
REMARK   15  A    between atoms: _36  and  _38
REMARK   16  A    between atoms: _38  and  _39
REMARK   17  A    between atoms: _38  and  _41
REMARK   18  A    between atoms: _41  and  _42
REMARK   19  A    between atoms: _45  and  _47
REMARK   20  A    between atoms: _47  and  _48
REMARK   21  A    between atoms: _47  and  _50
REMARK   22  A    between atoms: _50  and  _51
REMARK   23  A    between atoms: _54  and  _56
REMARK   24  A    between atoms: _56  and  _57
REMARK   25  A    between atoms: _56  and  _59
REMARK   26  A    between atoms: _59  and  _60
REMARK   27  A    between atoms: _63  and  _65
REMARK   28  A    between atoms: _65  and  _66
REMARK   29  A    between atoms: _68  and  _70
REMARK   30  A    between atoms: _70  and  _71
REMARK   31  A    between atoms: _74  and  _76
REMARK   32  A    between atoms: _76  and  _77
REMARK   33  A    between atoms: _76  and  _79
REMARK   34  A    between atoms: _79  and  _80
REMARK   35  A    between atoms: _83  and  _85
REMARK   36  A    between atoms: _85  and  _86
REMARK   37  A    between atoms: _85  and  _88
REMARK   38  A    between atoms: _88  and  _89
REMARK   39  A    between atoms: _92  and  _94
REMARK   40  A    between atoms: _94  and  _95
REMARK   41  A    between atoms: _94  and  _97
REMARK   42  A    between atoms: _97  and  _98
REMARK   43  A    between atoms: _101  and  _103
REMARK   44  A    between atoms: _103  and  _104
REMARK   45  A    between atoms: _103  and  _106
REMARK   46  A    between atoms: _109  and  _111
REMARK   47  A    between atoms: _111  and  _112
REMARK   48  A    between atoms: _111  and  _114
REMARK   49  A    between atoms: _114  and  _115
REMARK   50  A    between atoms: _115  and  _116
REMARK   51  A    between atoms: _116  and  _117
REMARK   52  A    between atoms: _117  and  _118
REMARK   53  A    between atoms: _122  and  _124
REMARK   54  A    between atoms: _124  and  _125
REMARK   55  A    between atoms: _124  and  _127
REMARK   56  A    between atoms: _127  and  _128
REMARK   57  A    between atoms: _128  and  _129
REMARK   58  A    between atoms: _131  and  _133
REMARK   59  A    between atoms: _133  and  _134
REMARK   60  A    between atoms: _133  and  _136
REMARK   61  A    between atoms: _136  and  _137
REMARK   62  A    between atoms: _140  and  _142
REMARK   63  A    between atoms: _142  and  _143
REMARK   64  A    between atoms: _145  and  _147
REMARK   65  A    between atoms: _147  and  _148
REMARK   66  A    between atoms: _150  and  _152
REMARK   67  A    between atoms: _152  and  _153
REMARK   68  A    between atoms: _152  and  _155
REMARK   69  A    between atoms: _158  and  _160
REMARK   70  A    between atoms: _160  and  _161
REMARK   71  A    between atoms: _163  and  _165
REMARK   72  A    between atoms: _165  and  _166
REMARK   73  A    between atoms: _168  and  _170
REMARK   74  A    between atoms: _170  and  _171
REMARK   75  A    between atoms: _170  and  _173
REMARK   76  A    between atoms: _173  and  _174
REMARK   77  A    between atoms: _180  and  _182
REMARK   78  A    between atoms: _182  and  _183
REMARK   79  A    between atoms: _182  and  _185
REMARK   80  A    between atoms: _185  and  _186
REMARK   81  A    between atoms: _189  and  _191
REMARK   82  A    between atoms: _191  and  _192
REMARK   83  A    between atoms: _191  and  _194
REMARK   84  A    between atoms: _194  and  _195
REMARK   85  A    between atoms: _198  and  _200
REMARK   86  A    between atoms: _200  and  _201
REMARK   87  A    between atoms: _200  and  _203
REMARK   88  A    between atoms: _203  and  _204
REMARK   89  A    between atoms: _208  and  _209
REMARK   90  A    between atoms: _214  and  _216
REMARK   91  A    between atoms: _216  and  _217
REMARK   92  A    between atoms: _216  and  _219
REMARK   93  A    between atoms: _222  and  _224
REMARK   94  A    between atoms: _224  and  _225
REMARK   95  A    between atoms: _224  and  _227
REMARK   96  A    between atoms: _227  and  _228
REMARK   97  A    between atoms: _233  and  _235
REMARK   98  A    between atoms: _235  and  _236
REMARK   99  A    between atoms: _235  and  _238
REMARK  100  A    between atoms: _238  and  _239
REMARK  101  A    between atoms: _242  and  _244
REMARK  102  A    between atoms: _244  and  _245
REMARK  103  A    between atoms: _244  and  _247
REMARK  104  A    between atoms: _247  and  _248
REMARK  105  A    between atoms: _251  and  _253
REMARK  106  A    between atoms: _253  and  _254
REMARK  107  A    between atoms: _256  and  _258
REMARK  108  A    between atoms: _258  and  _259
REMARK  109  A    between atoms: _258  and  _261
REMARK  110  A    between atoms: _261  and  _262
REMARK  111  A    between atoms: _262  and  _263
REMARK  112  A    between atoms: _263  and  _264
REMARK  113  A    between atoms: _273  and  _275
REMARK  114  A    between atoms: _275  and  _276
REMARK  115  A    between atoms: _275  and  _278
REMARK  116  A    between atoms: _278  and  _279
REMARK  117  A    between atoms: _284  and  _286
REMARK  118  A    between atoms: _286  and  _287
REMARK  119  A    between atoms: _286  and  _289
REMARK  120  A    between atoms: _289  and  _290
REMARK  121  A    between atoms: _290  and  _291
REMARK  122  A    between atoms: _291  and  _292
REMARK  123  A    between atoms: _302  and  _303
REMARK  124  A    between atoms: _308  and  _310
REMARK  125  A    between atoms: _310  and  _311
REMARK  126  A    between atoms: _310  and  _313
REMARK  127  A    between atoms: _313  and  _314
REMARK  128  A    between atoms: _317  and  _319
REMARK  129  A    between atoms: _319  and  _320
REMARK  130  A    between atoms: _319  and  _322
REMARK  131  A    between atoms: _322  and  _323
REMARK  132  A    between atoms: _326  and  _328
REMARK  133  A    between atoms: _328  and  _329
REMARK  134  A    between atoms: _328  and  _331
REMARK  135  A    between atoms: _331  and  _332
REMARK  136  A    between atoms: _335  and  _337
REMARK  137  A    between atoms: _337  and  _338
REMARK  138  A    between atoms: _337  and  _340
REMARK  139  A    between atoms: _340  and  _341
REMARK  140  A    between atoms: _344  and  _346
REMARK  141  A    between atoms: _346  and  _347
REMARK  142  A    between atoms: _346  and  _349
REMARK  143  A    between atoms: _349  and  _350
REMARK  144  A    between atoms: _353  and  _355
REMARK  145  A    between atoms: _355  and  _356
REMARK  146  A    between atoms: _358  and  _360
REMARK  147  A    between atoms: _360  and  _361
REMARK  148  A    between atoms: _364  and  _366
REMARK  149  A    between atoms: _366  and  _367
REMARK  150  A    between atoms: _366  and  _369
REMARK  151  A    between atoms: _369  and  _370
REMARK  152  A    between atoms: _373  and  _375
REMARK  153  A    between atoms: _375  and  _376
REMARK  154  A    between atoms: _375  and  _378
REMARK  155  A    between atoms: _378  and  _379
REMARK  156  A    between atoms: _382  and  _384
REMARK  157  A    between atoms: _384  and  _385
REMARK  158  A    between atoms: _384  and  _387
REMARK  159  A    between atoms: _387  and  _388
REMARK  160  A    between atoms: _391  and  _393
REMARK  161  A    between atoms: _393  and  _394
REMARK  162  A    between atoms: _393  and  _396
REMARK  163  A    between atoms: _399  and  _401
REMARK  164  A    between atoms: _401  and  _402
REMARK  165  A    between atoms: _401  and  _404
REMARK  166  A    between atoms: _404  and  _405
REMARK  167  A    between atoms: _408  and  _410
REMARK  168  A    between atoms: _410  and  _411
REMARK  169  A    between atoms: _410  and  _413
REMARK  170  A    between atoms: _413  and  _414
REMARK  171  A    between atoms: _417  and  _419
REMARK  172  A    between atoms: _419  and  _420
REMARK  173  A    between atoms: _422  and  _424
REMARK  174  A    between atoms: _424  and  _425
REMARK  175  A    between atoms: _427  and  _429
REMARK  176  A    between atoms: _429  and  _430
REMARK  177  A    between atoms: _429  and  _432
REMARK  178  A    between atoms: _435  and  _437
REMARK  179  A    between atoms: _437  and  _438
REMARK  180  A    between atoms: _440  and  _442
REMARK  181  A    between atoms: _442  and  _443
REMARK  182  A    between atoms: _445  and  _447
REMARK  183  A    between atoms: _447  and  _448
REMARK  184  A    between atoms: _447  and  _450
REMARK  185  A    between atoms: _450  and  _451
REMARK  186  A    between atoms: _457  and  _459
REMARK  187  A    between atoms: _459  and  _460
REMARK  188  A    between atoms: _459  and  _462
REMARK  189  A    between atoms: _462  and  _463
REMARK  190  A    between atoms: _466  and  _468
REMARK  191  A    between atoms: _468  and  _469
REMARK  192  A    between atoms: _468  and  _471
REMARK  193  A    between atoms: _474  and  _476
REMARK  194  A    between atoms: _476  and  _477
REMARK  195  A    between atoms: _476  and  _479
REMARK  196  A    between atoms: _479  and  _480
REMARK  197  A    between atoms: _483  and  _485
REMARK  198  A    between atoms: _485  and  _486
REMARK  199  A    between atoms: _485  and  _488
REMARK  200  A    between atoms: _488  and  _489
REMARK  201  A    between atoms: _493  and  _494
REMARK  202  A    between atoms: _499  and  _501
REMARK  203  A    between atoms: _501  and  _502
REMARK  204  A    between atoms: _501  and  _504
REMARK  205  A    between atoms: _507  and  _509
REMARK  206  A    between atoms: _509  and  _510
REMARK  207  A    between atoms: _509  and  _512
REMARK  208  A    between atoms: _512  and  _513
REMARK  209  A    between atoms: _518  and  _520
REMARK  210  A    between atoms: _520  and  _521
REMARK  211  A    between atoms: _520  and  _523
REMARK  212  A    between atoms: _523  and  _524
REMARK  213  A    between atoms: _527  and  _529
REMARK  214  A    between atoms: _529  and  _530
REMARK  215  A    between atoms: _529  and  _532
REMARK  216  A    between atoms: _532  and  _533
REMARK  217  A    between atoms: _536  and  _538
REMARK  218  A    between atoms: _538  and  _539
REMARK  219  A    between atoms: _541  and  _543
REMARK  220  A    between atoms: _543  and  _544
REMARK  221  A    between atoms: _543  and  _546
REMARK  222  A    between atoms: _546  and  _547
REMARK  223  A    between atoms: _547  and  _548
REMARK  224  A    between atoms: _548  and  _549
REMARK                            x       y       z     vdW  Elec       q    Type
REMARK                         _______ _______ _______ _____ _____    ______ ____
ROOT
ATOM      1  O   HOH     1     -11.430  25.678  20.540  0.00  0.00    +0.000 OA
ENDROOT
TORSDOF 0
