REMARK  Name = ../refined-set-2016/2vc7/2vc7_pocket.pdb
REMARK  185 active torsions:
REMARK  status: ('A' for Active; 'I' for Inactive)
REMARK    1  A    between atoms: _1  and  _3
REMARK    2  A    between atoms: _14  and  _17
REMARK    3  A    between atoms: _17  and  _18
REMARK    4  A    between atoms: _18  and  _19
REMARK    5  A    between atoms: _24  and  _25
REMARK    6  A    between atoms: _33  and  _35
REMARK    7  A    between atoms: _35  and  _36
REMARK    8  A    between atoms: _35  and  _38
REMARK    9  A    between atoms: _38  and  _39
REMARK   10  A    between atoms: _39  and  _40
REMARK   11  A    between atoms: _40  and  _41
REMARK   12  A    between atoms: _50  and  _52
REMARK   13  A    between atoms: _52  and  _53
REMARK   14  A    between atoms: _52  and  _55
REMARK   15  A    between atoms: _59  and  _60
REMARK   16  A    between atoms: _65  and  _67
REMARK   17  A    between atoms: _67  and  _68
REMARK   18  A    between atoms: _67  and  _70
REMARK   19  A    between atoms: _70  and  _71
REMARK   20  A    between atoms: _74  and  _76
REMARK   21  A    between atoms: _76  and  _77
REMARK   22  A    between atoms: _76  and  _79
REMARK   23  A    between atoms: _82  and  _84
REMARK   24  A    between atoms: _84  and  _85
REMARK   25  A    between atoms: _84  and  _87
REMARK   26  A    between atoms: _87  and  _88
REMARK   27  A    between atoms: _91  and  _93
REMARK   28  A    between atoms: _93  and  _94
REMARK   29  A    between atoms: _93  and  _96
REMARK   30  A    between atoms: _96  and  _97
REMARK   31  A    between atoms: _102  and  _103
REMARK   32  A    between atoms: _105  and  _107
REMARK   33  A    between atoms: _107  and  _108
REMARK   34  A    between atoms: _107  and  _110
REMARK   35  A    between atoms: _110  and  _111
REMARK   36  A    between atoms: _116  and  _117
REMARK   37  A    between atoms: _119  and  _121
REMARK   38  A    between atoms: _121  and  _122
REMARK   39  A    between atoms: _121  and  _128
REMARK   40  A    between atoms: _122  and  _123
REMARK   41  A    between atoms: _123  and  _124
REMARK   42  A    between atoms: _124  and  _125
REMARK   43  A    between atoms: _125  and  _126
REMARK   44  A    between atoms: _130  and  _131
REMARK   45  A    between atoms: _131  and  CO_480
REMARK   46  A    between atoms: _133  and  _135
REMARK   47  A    between atoms: _135  and  _136
REMARK   48  A    between atoms: _139  and  _141
REMARK   49  A    between atoms: _141  and  _142
REMARK   50  A    between atoms: _141  and  _144
REMARK   51  A    between atoms: _144  and  _145
REMARK   52  A    between atoms: _148  and  _150
REMARK   53  A    between atoms: _150  and  _151
REMARK   54  A    between atoms: _150  and  _153
REMARK   55  A    between atoms: _153  and  _154
REMARK   56  A    between atoms: _155  and  CO_480
REMARK   57  A    between atoms: _159  and  _161
REMARK   58  A    between atoms: _161  and  _162
REMARK   59  A    between atoms: _161  and  _164
REMARK   60  A    between atoms: _164  and  _165
REMARK   61  A    between atoms: _167  and  _169
REMARK   62  A    between atoms: _169  and  _170
REMARK   63  A    between atoms: _169  and  _172
REMARK   64  A    between atoms: _172  and  _173
REMARK   65  A    between atoms: _177  and  CO_480
REMARK   66  A    between atoms: _178  and  _180
REMARK   67  A    between atoms: _180  and  _181
REMARK   68  A    between atoms: _180  and  _183
REMARK   69  A    between atoms: _183  and  _184
REMARK   70  A    between atoms: _184  and  _185
REMARK   71  A    between atoms: _185  and  _186
REMARK   72  A    between atoms: _195  and  _197
REMARK   73  A    between atoms: _197  and  _198
REMARK   74  A    between atoms: _200  and  _202
REMARK   75  A    between atoms: _202  and  _203
REMARK   76  A    between atoms: _202  and  _205
REMARK   77  A    between atoms: _205  and  _206
REMARK   78  A    between atoms: _209  and  _211
REMARK   79  A    between atoms: _211  and  _212
REMARK   80  A    between atoms: _211  and  _214
REMARK   81  A    between atoms: _214  and  _215
REMARK   82  A    between atoms: _218  and  _220
REMARK   83  A    between atoms: _220  and  _221
REMARK   84  A    between atoms: _220  and  _223
REMARK   85  A    between atoms: _223  and  _224
REMARK   86  A    between atoms: _227  and  _229
REMARK   87  A    between atoms: _229  and  _230
REMARK   88  A    between atoms: _229  and  _232
REMARK   89  A    between atoms: _232  and  _233
REMARK   90  A    between atoms: _239  and  _241
REMARK   91  A    between atoms: _241  and  _242
REMARK   92  A    between atoms: _241  and  _244
REMARK   93  A    between atoms: _244  and  _245
REMARK   94  A    between atoms: _250  and  _252
REMARK   95  A    between atoms: _252  and  _253
REMARK   96  A    between atoms: _252  and  _255
REMARK   97  A    between atoms: _255  and  _256
REMARK   98  A    between atoms: _256  and  _258
REMARK   99  A    between atoms: _258  and  FE_479
REMARK  100  A    between atoms: _259  and  _261
REMARK  101  A    between atoms: _261  and  _262
REMARK  102  A    between atoms: _261  and  _264
REMARK  103  A    between atoms: _264  and  _265
REMARK  104  A    between atoms: _270  and  _271
REMARK  105  A    between atoms: _273  and  _275
REMARK  106  A    between atoms: _275  and  _276
REMARK  107  A    between atoms: _275  and  _278
REMARK  108  A    between atoms: _280  and  _282
REMARK  109  A    between atoms: _282  and  _283
REMARK  110  A    between atoms: _282  and  _285
REMARK  111  A    between atoms: _285  and  _286
REMARK  112  A    between atoms: _289  and  _291
REMARK  113  A    between atoms: _291  and  _292
REMARK  114  A    between atoms: _291  and  _294
REMARK  115  A    between atoms: _294  and  _295
REMARK  116  A    between atoms: _298  and  _300
REMARK  117  A    between atoms: _300  and  _301
REMARK  118  A    between atoms: _300  and  _303
REMARK  119  A    between atoms: _303  and  _304
REMARK  120  A    between atoms: _307  and  _309
REMARK  121  A    between atoms: _309  and  _310
REMARK  122  A    between atoms: _309  and  _312
REMARK  123  A    between atoms: _312  and  _313
REMARK  124  A    between atoms: _323  and  _325
REMARK  125  A    between atoms: _325  and  _326
REMARK  126  A    between atoms: _328  and  _330
REMARK  127  A    between atoms: _330  and  _331
REMARK  128  A    between atoms: _330  and  _333
REMARK  129  A    between atoms: _333  and  _334
REMARK  130  A    between atoms: _337  and  _339
REMARK  131  A    between atoms: _339  and  _340
REMARK  132  A    between atoms: _343  and  _345
REMARK  133  A    between atoms: _345  and  _346
REMARK  134  A    between atoms: _345  and  _348
REMARK  135  A    between atoms: _348  and  _349
REMARK  136  A    between atoms: _349  and  _350
REMARK  137  A    between atoms: _350  and  _351
REMARK  138  A    between atoms: _351  and  _352
REMARK  139  A    between atoms: _357  and  _358
REMARK  140  A    between atoms: _363  and  _365
REMARK  141  A    between atoms: _365  and  _366
REMARK  142  A    between atoms: _365  and  _368
REMARK  143  A    between atoms: _368  and  _369
REMARK  144  A    between atoms: _369  and  _370
REMARK  145  A    between atoms: _373  and  _375
REMARK  146  A    between atoms: _375  and  _376
REMARK  147  A    between atoms: _375  and  _378
REMARK  148  A    between atoms: _378  and  _379
REMARK  149  A    between atoms: _384  and  _385
REMARK  150  A    between atoms: _387  and  _389
REMARK  151  A    between atoms: _389  and  _390
REMARK  152  A    between atoms: _389  and  _392
REMARK  153  A    between atoms: _392  and  _393
REMARK  154  A    between atoms: _393  and  _394
REMARK  155  A    between atoms: _394  and  _395
REMARK  156  A    between atoms: _395  and  _396
REMARK  157  A    between atoms: _401  and  _402
REMARK  158  A    between atoms: _407  and  _409
REMARK  159  A    between atoms: _409  and  _410
REMARK  160  A    between atoms: _409  and  _412
REMARK  161  A    between atoms: _412  and  _413
REMARK  162  A    between atoms: _413  and  _414
REMARK  163  A    between atoms: _414  and  _415
REMARK  164  A    between atoms: _415  and  _416
REMARK  165  A    between atoms: _420  and  _422
REMARK  166  A    between atoms: _422  and  _423
REMARK  167  A    between atoms: _422  and  _425
REMARK  168  A    between atoms: _425  and  _426
REMARK  169  A    between atoms: _429  and  _431
REMARK  170  A    between atoms: _431  and  _432
REMARK  171  A    between atoms: _436  and  _437
REMARK  172  A    between atoms: _442  and  _444
REMARK  173  A    between atoms: _444  and  _445
REMARK  174  A    between atoms: _444  and  _447
REMARK  175  A    between atoms: _447  and  _448
REMARK  176  A    between atoms: _458  and  _460
REMARK  177  A    between atoms: _460  and  _461
REMARK  178  A    between atoms: _460  and  _463
REMARK  179  A    between atoms: _463  and  _464
REMARK  180  A    between atoms: _470  and  _472
REMARK  181  A    between atoms: _472  and  _473
REMARK  182  A    between atoms: _472  and  _475
REMARK  183  A    between atoms: _475  and  _476
REMARK  184  A    between atoms: FE_479  and  _486
REMARK  185  A    between atoms: CO_480  and  _486
REMARK                            x       y       z     vdW  Elec       q    Type
REMARK                         _______ _______ _______ _____ _____    ______ ____
ROOT
ATOM      1  C   UNK A   1      24.066 -12.594 -18.826  0.00  0.00    +0.000 C 
ATOM      2  C   UNK A   1      22.735 -11.866 -18.594  0.00  0.00    +0.000 C 
ATOM      3  C   UNK A   1      22.261 -11.900 -17.174  0.00  0.00    +0.000 A 
ATOM      4  C   UNK A   1      22.209 -12.909 -16.272  0.00  0.00    +0.000 A 
ATOM      5  N   UNK A   1      21.687 -12.391 -15.113  0.00  0.00    +0.000 N 
ATOM      6 FE   UNK A   3      20.984 -13.713 -13.459  0.00  0.00    +0.000 Fe
ATOM      7  N   UNK A   3      22.796 -14.951 -13.088  0.00  0.00    +0.000 N 
ATOM      8  C   UNK A   3      23.853 -14.789 -12.314  0.00  0.00    +0.000 A 
ATOM      9  N   UNK A   3      24.603 -15.874 -12.401  0.00  0.00    +0.000 NA
ATOM     10  C   UNK A   3      24.013 -16.768 -13.269  0.00  0.00    +0.000 A 
ATOM     11  C   UNK A   3      24.602 -18.109 -13.577  0.00  0.00    +0.000 C 
ATOM     12  C   UNK A   3      25.635 -18.099 -14.709  0.00  0.00    +0.000 C 
ATOM     13  N   UNK A   3      25.034 -17.659 -15.977  0.00  0.00    +0.000 N 
ATOM     14  H   UNK A   3      24.217 -18.179 -16.356  0.00  0.00    +0.000 HD
ATOM     15  C   UNK A   2      25.506 -16.613 -16.655  0.00  0.00    +0.000 C 
ATOM     16  O   UNK A   2      26.467 -15.949 -16.270  0.00  0.00    +0.000 OA
ATOM     17  C   UNK A   2      24.803 -16.256 -17.967  0.00  0.00    +0.000 C 
ATOM     18  N   UNK A   2      24.862 -14.805 -18.190  0.00  0.00    +0.000 N 
ATOM     19  H   UNK A   2      25.728 -14.297 -17.919  0.00  0.00    +0.000 HD
ATOM     20  C   UNK A   3      22.868 -16.182 -13.691  0.00  0.00    +0.000 A 
ATOM     21  C   UNK A   1      21.425 -11.109 -15.297  0.00  0.00    +0.000 A 
ATOM     22  N   UNK A   1      21.765 -10.787 -16.531  0.00  0.00    +0.000 NA
ATOM     23  C   UNK A   1      23.858 -14.108 -18.723  0.00  0.00    +0.000 C 
ATOM     24  O   UNK A   1      22.808 -14.624 -19.113  0.00  0.00    +0.000 OA
ENDROOT
BRANCH  12  25
ATOM     25  C   UNK A   3      26.261 -19.489 -14.815  0.00  0.00    +0.000 C 
ATOM     26  O   UNK A   3      25.603 -20.445 -15.234  0.00  0.00    +0.000 OA
ENDBRANCH  12  25
BRANCH   1  27
ATOM     27  N   UNK A   1      24.652 -12.177 -20.104  0.00  0.00    +0.000 NA
ATOM     28  H   UNK A   1      24.528 -12.780 -20.942  0.00  0.00    +0.000 HD
ENDBRANCH   1  27
BRANCH   6  29
ATOM     29  O   UNK A   3      18.913 -13.684 -12.982  0.00  0.00    +0.000 OA
BRANCH  29  30
ATOM     30 CO   UNK A   1      18.668 -11.699 -12.286  0.00  0.00    +0.000 Co
BRANCH  30  31
ATOM     31  N   UNK A   1      17.128 -10.689 -10.940  0.00  0.00    +0.000 N 
ATOM     32  C   UNK A   1      15.993 -11.162 -10.457  0.00  0.00    +0.000 A 
ATOM     33  N   UNK A   1      15.397 -10.200  -9.777  0.00  0.00    +0.000 NA
ATOM     34  C   UNK A   1      16.176  -9.070  -9.827  0.00  0.00    +0.000 A 
ATOM     35  C   UNK A   1      17.269  -9.369 -10.570  0.00  0.00    +0.000 A 
BRANCH  35  36
ATOM     36  C   UNK A   1      18.459  -8.540 -10.956  0.00  0.00    +0.000 C 
BRANCH  36  37
ATOM     37  C   UNK A   1      18.162  -7.455 -12.000  0.00  0.00    +0.000 C 
BRANCH  37  38
ATOM     38  C   UNK A   1      16.920  -6.670 -11.604  0.00  0.00    +0.000 C 
ATOM     39  O   UNK A   1      16.932  -5.945 -10.605  0.00  0.00    +0.000 OA
ATOM     40  N   UNK A   2      15.851  -6.805 -12.381  0.00  0.00    +0.000 N 
ATOM     41  H   UNK A   2      15.911  -7.386 -13.241  0.00  0.00    +0.000 HD
BRANCH  40  42
ATOM     42  C   UNK A   2      14.594  -6.148 -12.042  0.00  0.00    +0.000 C 
BRANCH  42  43
ATOM     43  C   UNK A   2      13.388  -7.055 -12.257  0.00  0.00    +0.000 C 
ATOM     44  O   UNK A   2      13.476  -8.078 -12.940  0.00  0.00    +0.000 OA
ENDBRANCH  42  43
BRANCH  42  45
ATOM     45  C   UNK A   2      14.435  -4.829 -12.811  0.00  0.00    +0.000 C 
BRANCH  45  46
ATOM     46  O   UNK A   2      14.110  -5.047 -14.173  0.00  0.00    +0.000 OA
ATOM     47  H   UNK A   2      14.831  -5.572 -14.603  0.00  0.00    +0.000 HD
ENDBRANCH  45  46
ENDBRANCH  42  45
ENDBRANCH  40  42
ENDBRANCH  37  38
BRANCH  37  48
ATOM     48  N   UNK A   1      19.260  -6.500 -12.062  0.00  0.00    +0.000 NA
ATOM     49  H   UNK A   1      19.629  -6.120 -11.167  0.00  0.00    +0.000 HD
ENDBRANCH  37  48
ENDBRANCH  36  37
ENDBRANCH  35  36
ENDBRANCH  30  31
BRANCH  30  50
ATOM     50  N   UNK A   1      17.421 -10.881 -13.914  0.00  0.00    +0.000 N 
ATOM     51  C   UNK A   1      16.238 -10.183 -13.886  0.00  0.00    +0.000 A 
ATOM     52  C   UNK A   1      15.801 -10.083 -15.163  0.00  0.00    +0.000 A 
ATOM     53  N   UNK A   1      16.737 -10.737 -15.938  0.00  0.00    +0.000 NA
ATOM     54  C   UNK A   1      17.702 -11.200 -15.164  0.00  0.00    +0.000 A 
BRANCH  52  55
ATOM     55  C   UNK A   1      14.573  -9.442 -15.742  0.00  0.00    +0.000 C 
BRANCH  55  56
ATOM     56  C   UNK A   1      14.762  -8.919 -17.178  0.00  0.00    +0.000 C 
BRANCH  56  57
ATOM     57  N   UNK A   1      16.009  -8.153 -17.299  0.00  0.00    +0.000 NA
ATOM     58  H   UNK A   1      16.738  -8.514 -17.947  0.00  0.00    +0.000 HD
ENDBRANCH  56  57
BRANCH  56  59
ATOM     59  C   UNK A   1      13.513  -8.210 -17.716  0.00  0.00    +0.000 C 
ATOM     60  O   UNK A   1      12.386  -8.544 -17.342  0.00  0.00    +0.000 OA
ENDBRANCH  56  59
ENDBRANCH  55  56
ENDBRANCH  52  55
ENDBRANCH  30  50
BRANCH  30  61
ATOM     61  O   UNK A   1      20.491 -10.530 -12.417  0.00  0.00    +0.000 OA
BRANCH  61  62
ATOM     62  C   UNK A   1      21.501 -11.014 -11.884  0.00  0.00    +0.000 C 
ATOM     63  O   UNK A   1      21.495 -12.210 -11.570  0.00  0.00    +0.000 OA
ATOM     64  N   UNK A   1      22.587 -10.273 -11.647  0.00  0.00    +0.000 N 
ATOM     65  H   UNK A   1      23.411 -10.709 -11.186  0.00  0.00    +0.000 HD
BRANCH  64  66
ATOM     66  C   UNK A   1      22.641  -8.830 -12.032  0.00  0.00    +0.000 C 
BRANCH  66  67
ATOM     67  C   UNK A   1      23.381  -7.885 -11.092  0.00  0.00    +0.000 C 
BRANCH  67  68
ATOM     68  C   UNK A   1      24.635  -8.489 -10.454  0.00  0.00    +0.000 C 
BRANCH  68  69
ATOM     69  C   UNK A   1      25.898  -7.595 -10.547  0.00  0.00    +0.000 C 
BRANCH  69  70
ATOM     70  C   UNK A   1      25.731  -6.066 -10.414  0.00  0.00    +0.000 C 
BRANCH  70  71
ATOM     71  N   UNK A   1      27.044  -5.423 -10.372  0.00  0.00    +0.000 NA
ATOM     72  H   UNK A   1      27.734  -5.748  -9.664  0.00  0.00    +0.000 HD
ENDBRANCH  70  71
BRANCH  70  73
ATOM     73  C   UNK A   1      24.899  -5.680  -9.186  0.00  0.00    +0.000 C 
ATOM     74  O   UNK A   1      25.351  -5.810  -8.046  0.00  0.00    +0.000 OA
ENDBRANCH  70  73
ENDBRANCH  69  70
ENDBRANCH  68  69
ENDBRANCH  67  68
ENDBRANCH  66  67
ENDBRANCH  64  66
ENDBRANCH  61  62
ENDBRANCH  30  61
ENDBRANCH  29  30
ENDBRANCH   6  29
BRANCH   6  75
ATOM     75  O   UNK A   2      20.370 -15.204 -15.043  0.00  0.00    +0.000 OA
BRANCH  75  76
ATOM     76  C   UNK A   2      19.217 -15.229 -15.524  0.00  0.00    +0.000 C 
ATOM     77  O   UNK A   2      18.196 -15.120 -14.814  0.00  0.00    +0.000 OA
BRANCH  76  78
ATOM     78  C   UNK A   2      19.032 -15.393 -17.028  0.00  0.00    +0.000 C 
BRANCH  78  79
ATOM     79  C   UNK A   2      20.214 -16.109 -17.714  0.00  0.00    +0.000 C 
BRANCH  79  80
ATOM     80  N   UNK A   2      20.084 -16.042 -19.176  0.00  0.00    +0.000 N 
ATOM     81  H   UNK A   2      20.806 -15.527 -19.719  0.00  0.00    +0.000 HD
ATOM     82  C   UNK A   1      19.074 -16.618 -19.834  0.00  0.00    +0.000 C 
ATOM     83  O   UNK A   1      18.117 -17.153 -19.268  0.00  0.00    +0.000 OA
BRANCH  82  84
ATOM     84  C   UNK A   1      19.154 -16.628 -21.360  0.00  0.00    +0.000 C 
BRANCH  84  85
ATOM     85  N   UNK A   1      20.124 -15.671 -21.927  0.00  0.00    +0.000 NA
ATOM     86  H   UNK A   1      21.136 -15.784 -21.714  0.00  0.00    +0.000 HD
ENDBRANCH  84  85
BRANCH  84  87
ATOM     87  C   UNK A   1      19.446 -18.075 -21.783  0.00  0.00    +0.000 C 
BRANCH  87  88
ATOM     88  C   UNK A   1      19.954 -18.224 -23.178  0.00  0.00    +0.000 A 
ATOM     89  N   UNK A   1      21.281 -18.048 -23.501  0.00  0.00    +0.000 NA
ATOM     90  C   UNK A   1      21.450 -18.262 -24.792  0.00  0.00    +0.000 A 
ATOM     91  N   UNK A   1      20.282 -18.586 -25.316  0.00  0.00    +0.000 NA
ATOM     92  C   UNK A   1      19.329 -18.574 -24.327  0.00  0.00    +0.000 A 
ENDBRANCH  87  88
ENDBRANCH  84  87
ENDBRANCH  82  84
ENDBRANCH  79  80
BRANCH  79  93
ATOM     93  C   UNK A   2      20.327 -17.574 -17.267  0.00  0.00    +0.000 C 
ATOM     94  O   UNK A   2      19.767 -17.972 -16.242  0.00  0.00    +0.000 OA
ATOM     95  N   UNK A   3      21.055 -18.374 -18.046  0.00  0.00    +0.000 N 
ATOM     96  H   UNK A   3      21.571 -17.972 -18.855  0.00  0.00    +0.000 HD
BRANCH  95  97
ATOM     97  C   UNK A   3      21.137 -19.807 -17.778  0.00  0.00    +0.000 C 
BRANCH  97  98
ATOM     98  C   UNK A   3      22.041 -20.135 -16.600  0.00  0.00    +0.000 C 
ATOM     99  N   CYS A   4      21.536 -21.000 -15.724  0.00  0.00    +0.000 N 
ATOM    100  H   CYS A   4      20.571 -21.357 -15.878  0.00  0.00    +0.000 HD
ATOM    101  O   UNK A   3      23.153 -19.618 -16.490  0.00  0.00    +0.000 OA
BRANCH  99 102
ATOM    102  CA  CYS A   4      22.273 -21.469 -14.561  0.00  0.00    +0.000 C 
BRANCH 102 103
ATOM    103  CB  CYS A   4      21.442 -21.271 -13.290  0.00  0.00    +0.000 C 
ATOM    104  SG  CYS A   4      20.861 -19.574 -13.020  0.00  0.00    +0.000 S 
ENDBRANCH 102 103
BRANCH 102 105
ATOM    105  C   CYS A   4      22.623 -22.942 -14.745  0.00  0.00    +0.000 C 
ATOM    106  O   CYS A   4      21.740 -23.805 -14.728  0.00  0.00    +0.000 OA
ENDBRANCH 102 105
ENDBRANCH  99 102
ENDBRANCH  97  98
BRANCH  97 107
ATOM    107  C   UNK A   3      21.556 -20.614 -19.015  0.00  0.00    +0.000 C 
BRANCH 107 108
ATOM    108  C   UNK A   3      21.448 -22.108 -18.784  0.00  0.00    +0.000 A 
ATOM    109  C   UNK A   3      20.203 -22.712 -18.604  0.00  0.00    +0.000 A 
ATOM    110  C   UNK A   3      20.089 -24.076 -18.375  0.00  0.00    +0.000 A 
ATOM    111  C   UNK A   3      21.229 -24.855 -18.319  0.00  0.00    +0.000 A 
ATOM    112  C   UNK A   3      22.480 -24.282 -18.486  0.00  0.00    +0.000 A 
ATOM    113  C   UNK A   3      22.584 -22.912 -18.715  0.00  0.00    +0.000 A 
BRANCH 111 114
ATOM    114  O   UNK A   3      21.111 -26.207 -18.094  0.00  0.00    +0.000 OA
ATOM    115  H   UNK A   3      21.595 -26.446 -17.264  0.00  0.00    +0.000 HD
ENDBRANCH 111 114
ENDBRANCH 107 108
ENDBRANCH  97 107
ENDBRANCH  95  97
ENDBRANCH  79  93
ENDBRANCH  78  79
ENDBRANCH  76  78
ENDBRANCH  75  76
ENDBRANCH   6  75
BRANCH  17 116
ATOM    116  C   UNK A   2      25.459 -17.027 -19.126  0.00  0.00    +0.000 C 
BRANCH 116 117
ATOM    117  C   UNK A   2      25.036 -16.620 -20.549  0.00  0.00    +0.000 C 
BRANCH 117 118
ATOM    118  C   UNK A   2      23.601 -17.001 -20.901  0.00  0.00    +0.000 C 
ATOM    119  O   UNK A   2      23.020 -17.883 -20.234  0.00  0.00    +0.000 OA
ATOM    120  O   UNK A   2      23.051 -16.413 -21.856  0.00  0.00    +0.000 OA
ENDBRANCH 117 118
ENDBRANCH 116 117
ENDBRANCH  17 116
TORSDOF 48
REMARK  Name = ../refined-set-2016/2vc7/2vc7_pocket.pdb
REMARK  185 active torsions:
REMARK  status: ('A' for Active; 'I' for Inactive)
REMARK    1  A    between atoms: _1  and  _3
REMARK    2  A    between atoms: _14  and  _17
REMARK    3  A    between atoms: _17  and  _18
REMARK    4  A    between atoms: _18  and  _19
REMARK    5  A    between atoms: _24  and  _25
REMARK    6  A    between atoms: _33  and  _35
REMARK    7  A    between atoms: _35  and  _36
REMARK    8  A    between atoms: _35  and  _38
REMARK    9  A    between atoms: _38  and  _39
REMARK   10  A    between atoms: _39  and  _40
REMARK   11  A    between atoms: _40  and  _41
REMARK   12  A    between atoms: _50  and  _52
REMARK   13  A    between atoms: _52  and  _53
REMARK   14  A    between atoms: _52  and  _55
REMARK   15  A    between atoms: _59  and  _60
REMARK   16  A    between atoms: _65  and  _67
REMARK   17  A    between atoms: _67  and  _68
REMARK   18  A    between atoms: _67  and  _70
REMARK   19  A    between atoms: _70  and  _71
REMARK   20  A    between atoms: _74  and  _76
REMARK   21  A    between atoms: _76  and  _77
REMARK   22  A    between atoms: _76  and  _79
REMARK   23  A    between atoms: _82  and  _84
REMARK   24  A    between atoms: _84  and  _85
REMARK   25  A    between atoms: _84  and  _87
REMARK   26  A    between atoms: _87  and  _88
REMARK   27  A    between atoms: _91  and  _93
REMARK   28  A    between atoms: _93  and  _94
REMARK   29  A    between atoms: _93  and  _96
REMARK   30  A    between atoms: _96  and  _97
REMARK   31  A    between atoms: _102  and  _103
REMARK   32  A    between atoms: _105  and  _107
REMARK   33  A    between atoms: _107  and  _108
REMARK   34  A    between atoms: _107  and  _110
REMARK   35  A    between atoms: _110  and  _111
REMARK   36  A    between atoms: _116  and  _117
REMARK   37  A    between atoms: _119  and  _121
REMARK   38  A    between atoms: _121  and  _122
REMARK   39  A    between atoms: _121  and  _128
REMARK   40  A    between atoms: _122  and  _123
REMARK   41  A    between atoms: _123  and  _124
REMARK   42  A    between atoms: _124  and  _125
REMARK   43  A    between atoms: _125  and  _126
REMARK   44  A    between atoms: _130  and  _131
REMARK   45  A    between atoms: _131  and  CO_480
REMARK   46  A    between atoms: _133  and  _135
REMARK   47  A    between atoms: _135  and  _136
REMARK   48  A    between atoms: _139  and  _141
REMARK   49  A    between atoms: _141  and  _142
REMARK   50  A    between atoms: _141  and  _144
REMARK   51  A    between atoms: _144  and  _145
REMARK   52  A    between atoms: _148  and  _150
REMARK   53  A    between atoms: _150  and  _151
REMARK   54  A    between atoms: _150  and  _153
REMARK   55  A    between atoms: _153  and  _154
REMARK   56  A    between atoms: _155  and  CO_480
REMARK   57  A    between atoms: _159  and  _161
REMARK   58  A    between atoms: _161  and  _162
REMARK   59  A    between atoms: _161  and  _164
REMARK   60  A    between atoms: _164  and  _165
REMARK   61  A    between atoms: _167  and  _169
REMARK   62  A    between atoms: _169  and  _170
REMARK   63  A    between atoms: _169  and  _172
REMARK   64  A    between atoms: _172  and  _173
REMARK   65  A    between atoms: _177  and  CO_480
REMARK   66  A    between atoms: _178  and  _180
REMARK   67  A    between atoms: _180  and  _181
REMARK   68  A    between atoms: _180  and  _183
REMARK   69  A    between atoms: _183  and  _184
REMARK   70  A    between atoms: _184  and  _185
REMARK   71  A    between atoms: _185  and  _186
REMARK   72  A    between atoms: _195  and  _197
REMARK   73  A    between atoms: _197  and  _198
REMARK   74  A    between atoms: _200  and  _202
REMARK   75  A    between atoms: _202  and  _203
REMARK   76  A    between atoms: _202  and  _205
REMARK   77  A    between atoms: _205  and  _206
REMARK   78  A    between atoms: _209  and  _211
REMARK   79  A    between atoms: _211  and  _212
REMARK   80  A    between atoms: _211  and  _214
REMARK   81  A    between atoms: _214  and  _215
REMARK   82  A    between atoms: _218  and  _220
REMARK   83  A    between atoms: _220  and  _221
REMARK   84  A    between atoms: _220  and  _223
REMARK   85  A    between atoms: _223  and  _224
REMARK   86  A    between atoms: _227  and  _229
REMARK   87  A    between atoms: _229  and  _230
REMARK   88  A    between atoms: _229  and  _232
REMARK   89  A    between atoms: _232  and  _233
REMARK   90  A    between atoms: _239  and  _241
REMARK   91  A    between atoms: _241  and  _242
REMARK   92  A    between atoms: _241  and  _244
REMARK   93  A    between atoms: _244  and  _245
REMARK   94  A    between atoms: _250  and  _252
REMARK   95  A    between atoms: _252  and  _253
REMARK   96  A    between atoms: _252  and  _255
REMARK   97  A    between atoms: _255  and  _256
REMARK   98  A    between atoms: _256  and  _258
REMARK   99  A    between atoms: _258  and  FE_479
REMARK  100  A    between atoms: _259  and  _261
REMARK  101  A    between atoms: _261  and  _262
REMARK  102  A    between atoms: _261  and  _264
REMARK  103  A    between atoms: _264  and  _265
REMARK  104  A    between atoms: _270  and  _271
REMARK  105  A    between atoms: _273  and  _275
REMARK  106  A    between atoms: _275  and  _276
REMARK  107  A    between atoms: _275  and  _278
REMARK  108  A    between atoms: _280  and  _282
REMARK  109  A    between atoms: _282  and  _283
REMARK  110  A    between atoms: _282  and  _285
REMARK  111  A    between atoms: _285  and  _286
REMARK  112  A    between atoms: _289  and  _291
REMARK  113  A    between atoms: _291  and  _292
REMARK  114  A    between atoms: _291  and  _294
REMARK  115  A    between atoms: _294  and  _295
REMARK  116  A    between atoms: _298  and  _300
REMARK  117  A    between atoms: _300  and  _301
REMARK  118  A    between atoms: _300  and  _303
REMARK  119  A    between atoms: _303  and  _304
REMARK  120  A    between atoms: _307  and  _309
REMARK  121  A    between atoms: _309  and  _310
REMARK  122  A    between atoms: _309  and  _312
REMARK  123  A    between atoms: _312  and  _313
REMARK  124  A    between atoms: _323  and  _325
REMARK  125  A    between atoms: _325  and  _326
REMARK  126  A    between atoms: _328  and  _330
REMARK  127  A    between atoms: _330  and  _331
REMARK  128  A    between atoms: _330  and  _333
REMARK  129  A    between atoms: _333  and  _334
REMARK  130  A    between atoms: _337  and  _339
REMARK  131  A    between atoms: _339  and  _340
REMARK  132  A    between atoms: _343  and  _345
REMARK  133  A    between atoms: _345  and  _346
REMARK  134  A    between atoms: _345  and  _348
REMARK  135  A    between atoms: _348  and  _349
REMARK  136  A    between atoms: _349  and  _350
REMARK  137  A    between atoms: _350  and  _351
REMARK  138  A    between atoms: _351  and  _352
REMARK  139  A    between atoms: _357  and  _358
REMARK  140  A    between atoms: _363  and  _365
REMARK  141  A    between atoms: _365  and  _366
REMARK  142  A    between atoms: _365  and  _368
REMARK  143  A    between atoms: _368  and  _369
REMARK  144  A    between atoms: _369  and  _370
REMARK  145  A    between atoms: _373  and  _375
REMARK  146  A    between atoms: _375  and  _376
REMARK  147  A    between atoms: _375  and  _378
REMARK  148  A    between atoms: _378  and  _379
REMARK  149  A    between atoms: _384  and  _385
REMARK  150  A    between atoms: _387  and  _389
REMARK  151  A    between atoms: _389  and  _390
REMARK  152  A    between atoms: _389  and  _392
REMARK  153  A    between atoms: _392  and  _393
REMARK  154  A    between atoms: _393  and  _394
REMARK  155  A    between atoms: _394  and  _395
REMARK  156  A    between atoms: _395  and  _396
REMARK  157  A    between atoms: _401  and  _402
REMARK  158  A    between atoms: _407  and  _409
REMARK  159  A    between atoms: _409  and  _410
REMARK  160  A    between atoms: _409  and  _412
REMARK  161  A    between atoms: _412  and  _413
REMARK  162  A    between atoms: _413  and  _414
REMARK  163  A    between atoms: _414  and  _415
REMARK  164  A    between atoms: _415  and  _416
REMARK  165  A    between atoms: _420  and  _422
REMARK  166  A    between atoms: _422  and  _423
REMARK  167  A    between atoms: _422  and  _425
REMARK  168  A    between atoms: _425  and  _426
REMARK  169  A    between atoms: _429  and  _431
REMARK  170  A    between atoms: _431  and  _432
REMARK  171  A    between atoms: _436  and  _437
REMARK  172  A    between atoms: _442  and  _444
REMARK  173  A    between atoms: _444  and  _445
REMARK  174  A    between atoms: _444  and  _447
REMARK  175  A    between atoms: _447  and  _448
REMARK  176  A    between atoms: _458  and  _460
REMARK  177  A    between atoms: _460  and  _461
REMARK  178  A    between atoms: _460  and  _463
REMARK  179  A    between atoms: _463  and  _464
REMARK  180  A    between atoms: _470  and  _472
REMARK  181  A    between atoms: _472  and  _473
REMARK  182  A    between atoms: _472  and  _475
REMARK  183  A    between atoms: _475  and  _476
REMARK  184  A    between atoms: FE_479  and  _486
REMARK  185  A    between atoms: CO_480  and  _486
REMARK                            x       y       z     vdW  Elec       q    Type
REMARK                         _______ _______ _______ _____ _____    ______ ____
ROOT
ATOM      1  CA  ARG A   1      26.964 -21.690 -10.856  0.00  0.00    +0.145 C 
ENDROOT
BRANCH   1   2
ATOM      2  C   ARG A   1      26.372 -20.655  -9.903  0.00  0.00    +0.238 C 
ATOM      3  N   VAL A   2      25.213 -20.971  -9.330  0.00  0.00    -0.298 N 
ATOM      4  H   VAL A   2      24.719 -21.837  -9.624  0.00  0.00    +0.150 HD
ATOM      5  O   ARG A   1      26.958 -19.591  -9.690  0.00  0.00    -0.274 OA
BRANCH   3   6
ATOM      6  CA  VAL A   2      24.621 -20.124  -8.295  0.00  0.00    +0.137 C 
BRANCH   6   7
ATOM      7  CB  VAL A   2      23.461 -19.220  -8.843  0.00  0.00    +0.026 C 
ATOM      8  CG2 VAL A   2      22.437 -18.872  -7.755  0.00  0.00    +0.002 C 
ATOM      9  CG1 VAL A   2      22.789 -19.853 -10.050  0.00  0.00    +0.002 C 
ENDBRANCH   6   7
BRANCH   6  10
ATOM     10  C   VAL A   2      24.213 -20.920  -7.054  0.00  0.00    +0.227 C 
ATOM     11  O   VAL A   2      23.556 -21.960  -7.156  0.00  0.00    -0.286 OA
ENDBRANCH   6  10
ENDBRANCH   3   6
ENDBRANCH   1   2
BRANCH   1  12
ATOM     12  N   ARG A   1      27.430 -21.046 -12.085  0.00  0.00    -0.238 NA
ATOM     13  H   ARG A   1      27.516 -20.010 -12.098  0.00  0.00    +0.142 HD
ENDBRANCH   1  12
BRANCH   1  14
ATOM     14  CB  ARG A   1      28.119 -22.430 -10.165  0.00  0.00    +0.030 C 
BRANCH  14  15
ATOM     15  CG  ARG A   1      27.721 -23.190  -8.907  0.00  0.00    +0.045 C 
BRANCH  15  16
ATOM     16  CD  ARG A   1      28.885 -23.970  -8.330  0.00  0.00    +0.174 C 
BRANCH  16  17
ATOM     17  NE  ARG A   1      29.896 -23.107  -7.724  0.00  0.00    -0.265 N 
ATOM     18  CZ  ARG A   1      30.936 -23.547  -7.019  0.00  0.00    +0.342 C 
ATOM     19  NH2 ARG A   1      31.801 -22.682  -6.507  0.00  0.00    -0.292 N 
ATOM     20 HH21 ARG A   1      32.614 -23.024  -5.956  0.00  0.00    +0.255 HD
ATOM     21 HH22 ARG A   1      31.666 -21.662  -6.656  0.00  0.00    +0.255 HD
ATOM     22  NH1 ARG A   1      31.115 -24.847  -6.819  0.00  0.00    -0.292 N 
ATOM     23 HH11 ARG A   1      31.931 -25.181  -6.267  0.00  0.00    +0.255 HD
ATOM     24 HH12 ARG A   1      30.440 -25.532  -7.215  0.00  0.00    +0.255 HD
ATOM     25  HE  ARG A   1      29.797 -22.080  -7.852  0.00  0.00    +0.259 HD
ENDBRANCH  16  17
ENDBRANCH  15  16
ENDBRANCH  14  15
ENDBRANCH   1  14
TORSDOF 9
REMARK  Name = ../refined-set-2016/2vc7/2vc7_pocket.pdb
REMARK  185 active torsions:
REMARK  status: ('A' for Active; 'I' for Inactive)
REMARK    1  A    between atoms: _1  and  _3
REMARK    2  A    between atoms: _14  and  _17
REMARK    3  A    between atoms: _17  and  _18
REMARK    4  A    between atoms: _18  and  _19
REMARK    5  A    between atoms: _24  and  _25
REMARK    6  A    between atoms: _33  and  _35
REMARK    7  A    between atoms: _35  and  _36
REMARK    8  A    between atoms: _35  and  _38
REMARK    9  A    between atoms: _38  and  _39
REMARK   10  A    between atoms: _39  and  _40
REMARK   11  A    between atoms: _40  and  _41
REMARK   12  A    between atoms: _50  and  _52
REMARK   13  A    between atoms: _52  and  _53
REMARK   14  A    between atoms: _52  and  _55
REMARK   15  A    between atoms: _59  and  _60
REMARK   16  A    between atoms: _65  and  _67
REMARK   17  A    between atoms: _67  and  _68
REMARK   18  A    between atoms: _67  and  _70
REMARK   19  A    between atoms: _70  and  _71
REMARK   20  A    between atoms: _74  and  _76
REMARK   21  A    between atoms: _76  and  _77
REMARK   22  A    between atoms: _76  and  _79
REMARK   23  A    between atoms: _82  and  _84
REMARK   24  A    between atoms: _84  and  _85
REMARK   25  A    between atoms: _84  and  _87
REMARK   26  A    between atoms: _87  and  _88
REMARK   27  A    between atoms: _91  and  _93
REMARK   28  A    between atoms: _93  and  _94
REMARK   29  A    between atoms: _93  and  _96
REMARK   30  A    between atoms: _96  and  _97
REMARK   31  A    between atoms: _102  and  _103
REMARK   32  A    between atoms: _105  and  _107
REMARK   33  A    between atoms: _107  and  _108
REMARK   34  A    between atoms: _107  and  _110
REMARK   35  A    between atoms: _110  and  _111
REMARK   36  A    between atoms: _116  and  _117
REMARK   37  A    between atoms: _119  and  _121
REMARK   38  A    between atoms: _121  and  _122
REMARK   39  A    between atoms: _121  and  _128
REMARK   40  A    between atoms: _122  and  _123
REMARK   41  A    between atoms: _123  and  _124
REMARK   42  A    between atoms: _124  and  _125
REMARK   43  A    between atoms: _125  and  _126
REMARK   44  A    between atoms: _130  and  _131
REMARK   45  A    between atoms: _131  and  CO_480
REMARK   46  A    between atoms: _133  and  _135
REMARK   47  A    between atoms: _135  and  _136
REMARK   48  A    between atoms: _139  and  _141
REMARK   49  A    between atoms: _141  and  _142
REMARK   50  A    between atoms: _141  and  _144
REMARK   51  A    between atoms: _144  and  _145
REMARK   52  A    between atoms: _148  and  _150
REMARK   53  A    between atoms: _150  and  _151
REMARK   54  A    between atoms: _150  and  _153
REMARK   55  A    between atoms: _153  and  _154
REMARK   56  A    between atoms: _155  and  CO_480
REMARK   57  A    between atoms: _159  and  _161
REMARK   58  A    between atoms: _161  and  _162
REMARK   59  A    between atoms: _161  and  _164
REMARK   60  A    between atoms: _164  and  _165
REMARK   61  A    between atoms: _167  and  _169
REMARK   62  A    between atoms: _169  and  _170
REMARK   63  A    between atoms: _169  and  _172
REMARK   64  A    between atoms: _172  and  _173
REMARK   65  A    between atoms: _177  and  CO_480
REMARK   66  A    between atoms: _178  and  _180
REMARK   67  A    between atoms: _180  and  _181
REMARK   68  A    between atoms: _180  and  _183
REMARK   69  A    between atoms: _183  and  _184
REMARK   70  A    between atoms: _184  and  _185
REMARK   71  A    between atoms: _185  and  _186
REMARK   72  A    between atoms: _195  and  _197
REMARK   73  A    between atoms: _197  and  _198
REMARK   74  A    between atoms: _200  and  _202
REMARK   75  A    between atoms: _202  and  _203
REMARK   76  A    between atoms: _202  and  _205
REMARK   77  A    between atoms: _205  and  _206
REMARK   78  A    between atoms: _209  and  _211
REMARK   79  A    between atoms: _211  and  _212
REMARK   80  A    between atoms: _211  and  _214
REMARK   81  A    between atoms: _214  and  _215
REMARK   82  A    between atoms: _218  and  _220
REMARK   83  A    between atoms: _220  and  _221
REMARK   84  A    between atoms: _220  and  _223
REMARK   85  A    between atoms: _223  and  _224
REMARK   86  A    between atoms: _227  and  _229
REMARK   87  A    between atoms: _229  and  _230
REMARK   88  A    between atoms: _229  and  _232
REMARK   89  A    between atoms: _232  and  _233
REMARK   90  A    between atoms: _239  and  _241
REMARK   91  A    between atoms: _241  and  _242
REMARK   92  A    between atoms: _241  and  _244
REMARK   93  A    between atoms: _244  and  _245
REMARK   94  A    between atoms: _250  and  _252
REMARK   95  A    between atoms: _252  and  _253
REMARK   96  A    between atoms: _252  and  _255
REMARK   97  A    between atoms: _255  and  _256
REMARK   98  A    between atoms: _256  and  _258
REMARK   99  A    between atoms: _258  and  FE_479
REMARK  100  A    between atoms: _259  and  _261
REMARK  101  A    between atoms: _261  and  _262
REMARK  102  A    between atoms: _261  and  _264
REMARK  103  A    between atoms: _264  and  _265
REMARK  104  A    between atoms: _270  and  _271
REMARK  105  A    between atoms: _273  and  _275
REMARK  106  A    between atoms: _275  and  _276
REMARK  107  A    between atoms: _275  and  _278
REMARK  108  A    between atoms: _280  and  _282
REMARK  109  A    between atoms: _282  and  _283
REMARK  110  A    between atoms: _282  and  _285
REMARK  111  A    between atoms: _285  and  _286
REMARK  112  A    between atoms: _289  and  _291
REMARK  113  A    between atoms: _291  and  _292
REMARK  114  A    between atoms: _291  and  _294
REMARK  115  A    between atoms: _294  and  _295
REMARK  116  A    between atoms: _298  and  _300
REMARK  117  A    between atoms: _300  and  _301
REMARK  118  A    between atoms: _300  and  _303
REMARK  119  A    between atoms: _303  and  _304
REMARK  120  A    between atoms: _307  and  _309
REMARK  121  A    between atoms: _309  and  _310
REMARK  122  A    between atoms: _309  and  _312
REMARK  123  A    between atoms: _312  and  _313
REMARK  124  A    between atoms: _323  and  _325
REMARK  125  A    between atoms: _325  and  _326
REMARK  126  A    between atoms: _328  and  _330
REMARK  127  A    between atoms: _330  and  _331
REMARK  128  A    between atoms: _330  and  _333
REMARK  129  A    between atoms: _333  and  _334
REMARK  130  A    between atoms: _337  and  _339
REMARK  131  A    between atoms: _339  and  _340
REMARK  132  A    between atoms: _343  and  _345
REMARK  133  A    between atoms: _345  and  _346
REMARK  134  A    between atoms: _345  and  _348
REMARK  135  A    between atoms: _348  and  _349
REMARK  136  A    between atoms: _349  and  _350
REMARK  137  A    between atoms: _350  and  _351
REMARK  138  A    between atoms: _351  and  _352
REMARK  139  A    between atoms: _357  and  _358
REMARK  140  A    between atoms: _363  and  _365
REMARK  141  A    between atoms: _365  and  _366
REMARK  142  A    between atoms: _365  and  _368
REMARK  143  A    between atoms: _368  and  _369
REMARK  144  A    between atoms: _369  and  _370
REMARK  145  A    between atoms: _373  and  _375
REMARK  146  A    between atoms: _375  and  _376
REMARK  147  A    between atoms: _375  and  _378
REMARK  148  A    between atoms: _378  and  _379
REMARK  149  A    between atoms: _384  and  _385
REMARK  150  A    between atoms: _387  and  _389
REMARK  151  A    between atoms: _389  and  _390
REMARK  152  A    between atoms: _389  and  _392
REMARK  153  A    between atoms: _392  and  _393
REMARK  154  A    between atoms: _393  and  _394
REMARK  155  A    between atoms: _394  and  _395
REMARK  156  A    between atoms: _395  and  _396
REMARK  157  A    between atoms: _401  and  _402
REMARK  158  A    between atoms: _407  and  _409
REMARK  159  A    between atoms: _409  and  _410
REMARK  160  A    between atoms: _409  and  _412
REMARK  161  A    between atoms: _412  and  _413
REMARK  162  A    between atoms: _413  and  _414
REMARK  163  A    between atoms: _414  and  _415
REMARK  164  A    between atoms: _415  and  _416
REMARK  165  A    between atoms: _420  and  _422
REMARK  166  A    between atoms: _422  and  _423
REMARK  167  A    between atoms: _422  and  _425
REMARK  168  A    between atoms: _425  and  _426
REMARK  169  A    between atoms: _429  and  _431
REMARK  170  A    between atoms: _431  and  _432
REMARK  171  A    between atoms: _436  and  _437
REMARK  172  A    between atoms: _442  and  _444
REMARK  173  A    between atoms: _444  and  _445
REMARK  174  A    between atoms: _444  and  _447
REMARK  175  A    between atoms: _447  and  _448
REMARK  176  A    between atoms: _458  and  _460
REMARK  177  A    between atoms: _460  and  _461
REMARK  178  A    between atoms: _460  and  _463
REMARK  179  A    between atoms: _463  and  _464
REMARK  180  A    between atoms: _470  and  _472
REMARK  181  A    between atoms: _472  and  _473
REMARK  182  A    between atoms: _472  and  _475
REMARK  183  A    between atoms: _475  and  _476
REMARK  184  A    between atoms: FE_479  and  _486
REMARK  185  A    between atoms: CO_480  and  _486
REMARK                            x       y       z     vdW  Elec       q    Type
REMARK                         _______ _______ _______ _____ _____    ______ ____
ROOT
ATOM      1  CA  THR A   2      27.054 -13.955 -10.071  0.00  0.00    +0.176 C 
ENDROOT
BRANCH   1   4
ATOM      2  C   PRO A   1      26.407 -12.237 -11.697  0.00  0.00    +0.239 C 
ATOM      3  O   PRO A   1      25.567 -11.737 -10.938  0.00  0.00    -0.274 OA
ATOM      4  N   THR A   2      27.124 -13.316 -11.385  0.00  0.00    -0.295 N 
ATOM      5  H   THR A   2      27.758 -13.720 -12.104  0.00  0.00    +0.150 HD
BRANCH   2   7
ATOM      6  N   PRO A   1      27.094 -12.514 -14.134  0.00  0.00    -0.210 NA
ATOM      7  CA  PRO A   1      26.672 -11.598 -13.072  0.00  0.00    +0.149 C 
ATOM      8  CB  PRO A   1      25.377 -10.981 -13.635  0.00  0.00    +0.028 C 
ATOM      9  CG  PRO A   1      25.087 -11.713 -14.930  0.00  0.00    +0.021 C 
ATOM     10  CD  PRO A   1      25.945 -12.929 -14.952  0.00  0.00    +0.089 C 
ENDBRANCH   2   7
ENDBRANCH   1   4
BRANCH   1  11
ATOM     11  C   THR A   2      27.871 -13.133  -9.070  0.00  0.00    +0.243 C 
ATOM     12  N   VAL A   3      27.204 -12.630  -8.030  0.00  0.00    -0.298 N 
ATOM     13  H   VAL A   3      26.191 -12.843  -7.933  0.00  0.00    +0.150 HD
ATOM     14  O   THR A   2      29.079 -12.950  -9.251  0.00  0.00    -0.273 OA
BRANCH  12  15
ATOM     15  CA  VAL A   3      27.853 -11.784  -7.014  0.00  0.00    +0.137 C 
BRANCH  15  16
ATOM     16  CB  VAL A   3      27.541 -10.270  -7.231  0.00  0.00    +0.026 C 
ATOM     17  CG2 VAL A   3      26.032 -10.012  -7.281  0.00  0.00    +0.002 C 
ATOM     18  CG1 VAL A   3      28.224  -9.747  -8.490  0.00  0.00    +0.002 C 
ENDBRANCH  15  16
BRANCH  15  19
ATOM     19  C   VAL A   3      27.449 -12.220  -5.602  0.00  0.00    +0.227 C 
ATOM     20  O   VAL A   3      26.935 -13.327  -5.423  0.00  0.00    -0.286 OA
ENDBRANCH  15  19
ENDBRANCH  12  15
ENDBRANCH   1  11
BRANCH   1  21
ATOM     21  CB  THR A   2      27.575 -15.416 -10.118  0.00  0.00    +0.137 C 
ATOM     22  CG2 THR A   2      27.339 -16.124  -8.795  0.00  0.00    +0.034 C 
BRANCH  21  23
ATOM     23  OG1 THR A   2      26.902 -16.139 -11.155  0.00  0.00    -0.382 OA
ATOM     24  HG1 THR A   2      27.075 -15.702 -12.026  0.00  0.00    +0.210 HD
ENDBRANCH  21  23
ENDBRANCH   1  21
TORSDOF 8
REMARK  Name = ../refined-set-2016/2vc7/2vc7_pocket.pdb
REMARK  185 active torsions:
REMARK  status: ('A' for Active; 'I' for Inactive)
REMARK    1  A    between atoms: _1  and  _3
REMARK    2  A    between atoms: _14  and  _17
REMARK    3  A    between atoms: _17  and  _18
REMARK    4  A    between atoms: _18  and  _19
REMARK    5  A    between atoms: _24  and  _25
REMARK    6  A    between atoms: _33  and  _35
REMARK    7  A    between atoms: _35  and  _36
REMARK    8  A    between atoms: _35  and  _38
REMARK    9  A    between atoms: _38  and  _39
REMARK   10  A    between atoms: _39  and  _40
REMARK   11  A    between atoms: _40  and  _41
REMARK   12  A    between atoms: _50  and  _52
REMARK   13  A    between atoms: _52  and  _53
REMARK   14  A    between atoms: _52  and  _55
REMARK   15  A    between atoms: _59  and  _60
REMARK   16  A    between atoms: _65  and  _67
REMARK   17  A    between atoms: _67  and  _68
REMARK   18  A    between atoms: _67  and  _70
REMARK   19  A    between atoms: _70  and  _71
REMARK   20  A    between atoms: _74  and  _76
REMARK   21  A    between atoms: _76  and  _77
REMARK   22  A    between atoms: _76  and  _79
REMARK   23  A    between atoms: _82  and  _84
REMARK   24  A    between atoms: _84  and  _85
REMARK   25  A    between atoms: _84  and  _87
REMARK   26  A    between atoms: _87  and  _88
REMARK   27  A    between atoms: _91  and  _93
REMARK   28  A    between atoms: _93  and  _94
REMARK   29  A    between atoms: _93  and  _96
REMARK   30  A    between atoms: _96  and  _97
REMARK   31  A    between atoms: _102  and  _103
REMARK   32  A    between atoms: _105  and  _107
REMARK   33  A    between atoms: _107  and  _108
REMARK   34  A    between atoms: _107  and  _110
REMARK   35  A    between atoms: _110  and  _111
REMARK   36  A    between atoms: _116  and  _117
REMARK   37  A    between atoms: _119  and  _121
REMARK   38  A    between atoms: _121  and  _122
REMARK   39  A    between atoms: _121  and  _128
REMARK   40  A    between atoms: _122  and  _123
REMARK   41  A    between atoms: _123  and  _124
REMARK   42  A    between atoms: _124  and  _125
REMARK   43  A    between atoms: _125  and  _126
REMARK   44  A    between atoms: _130  and  _131
REMARK   45  A    between atoms: _131  and  CO_480
REMARK   46  A    between atoms: _133  and  _135
REMARK   47  A    between atoms: _135  and  _136
REMARK   48  A    between atoms: _139  and  _141
REMARK   49  A    between atoms: _141  and  _142
REMARK   50  A    between atoms: _141  and  _144
REMARK   51  A    between atoms: _144  and  _145
REMARK   52  A    between atoms: _148  and  _150
REMARK   53  A    between atoms: _150  and  _151
REMARK   54  A    between atoms: _150  and  _153
REMARK   55  A    between atoms: _153  and  _154
REMARK   56  A    between atoms: _155  and  CO_480
REMARK   57  A    between atoms: _159  and  _161
REMARK   58  A    between atoms: _161  and  _162
REMARK   59  A    between atoms: _161  and  _164
REMARK   60  A    between atoms: _164  and  _165
REMARK   61  A    between atoms: _167  and  _169
REMARK   62  A    between atoms: _169  and  _170
REMARK   63  A    between atoms: _169  and  _172
REMARK   64  A    between atoms: _172  and  _173
REMARK   65  A    between atoms: _177  and  CO_480
REMARK   66  A    between atoms: _178  and  _180
REMARK   67  A    between atoms: _180  and  _181
REMARK   68  A    between atoms: _180  and  _183
REMARK   69  A    between atoms: _183  and  _184
REMARK   70  A    between atoms: _184  and  _185
REMARK   71  A    between atoms: _185  and  _186
REMARK   72  A    between atoms: _195  and  _197
REMARK   73  A    between atoms: _197  and  _198
REMARK   74  A    between atoms: _200  and  _202
REMARK   75  A    between atoms: _202  and  _203
REMARK   76  A    between atoms: _202  and  _205
REMARK   77  A    between atoms: _205  and  _206
REMARK   78  A    between atoms: _209  and  _211
REMARK   79  A    between atoms: _211  and  _212
REMARK   80  A    between atoms: _211  and  _214
REMARK   81  A    between atoms: _214  and  _215
REMARK   82  A    between atoms: _218  and  _220
REMARK   83  A    between atoms: _220  and  _221
REMARK   84  A    between atoms: _220  and  _223
REMARK   85  A    between atoms: _223  and  _224
REMARK   86  A    between atoms: _227  and  _229
REMARK   87  A    between atoms: _229  and  _230
REMARK   88  A    between atoms: _229  and  _232
REMARK   89  A    between atoms: _232  and  _233
REMARK   90  A    between atoms: _239  and  _241
REMARK   91  A    between atoms: _241  and  _242
REMARK   92  A    between atoms: _241  and  _244
REMARK   93  A    between atoms: _244  and  _245
REMARK   94  A    between atoms: _250  and  _252
REMARK   95  A    between atoms: _252  and  _253
REMARK   96  A    between atoms: _252  and  _255
REMARK   97  A    between atoms: _255  and  _256
REMARK   98  A    between atoms: _256  and  _258
REMARK   99  A    between atoms: _258  and  FE_479
REMARK  100  A    between atoms: _259  and  _261
REMARK  101  A    between atoms: _261  and  _262
REMARK  102  A    between atoms: _261  and  _264
REMARK  103  A    between atoms: _264  and  _265
REMARK  104  A    between atoms: _270  and  _271
REMARK  105  A    between atoms: _273  and  _275
REMARK  106  A    between atoms: _275  and  _276
REMARK  107  A    between atoms: _275  and  _278
REMARK  108  A    between atoms: _280  and  _282
REMARK  109  A    between atoms: _282  and  _283
REMARK  110  A    between atoms: _282  and  _285
REMARK  111  A    between atoms: _285  and  _286
REMARK  112  A    between atoms: _289  and  _291
REMARK  113  A    between atoms: _291  and  _292
REMARK  114  A    between atoms: _291  and  _294
REMARK  115  A    between atoms: _294  and  _295
REMARK  116  A    between atoms: _298  and  _300
REMARK  117  A    between atoms: _300  and  _301
REMARK  118  A    between atoms: _300  and  _303
REMARK  119  A    between atoms: _303  and  _304
REMARK  120  A    between atoms: _307  and  _309
REMARK  121  A    between atoms: _309  and  _310
REMARK  122  A    between atoms: _309  and  _312
REMARK  123  A    between atoms: _312  and  _313
REMARK  124  A    between atoms: _323  and  _325
REMARK  125  A    between atoms: _325  and  _326
REMARK  126  A    between atoms: _328  and  _330
REMARK  127  A    between atoms: _330  and  _331
REMARK  128  A    between atoms: _330  and  _333
REMARK  129  A    between atoms: _333  and  _334
REMARK  130  A    between atoms: _337  and  _339
REMARK  131  A    between atoms: _339  and  _340
REMARK  132  A    between atoms: _343  and  _345
REMARK  133  A    between atoms: _345  and  _346
REMARK  134  A    between atoms: _345  and  _348
REMARK  135  A    between atoms: _348  and  _349
REMARK  136  A    between atoms: _349  and  _350
REMARK  137  A    between atoms: _350  and  _351
REMARK  138  A    between atoms: _351  and  _352
REMARK  139  A    between atoms: _357  and  _358
REMARK  140  A    between atoms: _363  and  _365
REMARK  141  A    between atoms: _365  and  _366
REMARK  142  A    between atoms: _365  and  _368
REMARK  143  A    between atoms: _368  and  _369
REMARK  144  A    between atoms: _369  and  _370
REMARK  145  A    between atoms: _373  and  _375
REMARK  146  A    between atoms: _375  and  _376
REMARK  147  A    between atoms: _375  and  _378
REMARK  148  A    between atoms: _378  and  _379
REMARK  149  A    between atoms: _384  and  _385
REMARK  150  A    between atoms: _387  and  _389
REMARK  151  A    between atoms: _389  and  _390
REMARK  152  A    between atoms: _389  and  _392
REMARK  153  A    between atoms: _392  and  _393
REMARK  154  A    between atoms: _393  and  _394
REMARK  155  A    between atoms: _394  and  _395
REMARK  156  A    between atoms: _395  and  _396
REMARK  157  A    between atoms: _401  and  _402
REMARK  158  A    between atoms: _407  and  _409
REMARK  159  A    between atoms: _409  and  _410
REMARK  160  A    between atoms: _409  and  _412
REMARK  161  A    between atoms: _412  and  _413
REMARK  162  A    between atoms: _413  and  _414
REMARK  163  A    between atoms: _414  and  _415
REMARK  164  A    between atoms: _415  and  _416
REMARK  165  A    between atoms: _420  and  _422
REMARK  166  A    between atoms: _422  and  _423
REMARK  167  A    between atoms: _422  and  _425
REMARK  168  A    between atoms: _425  and  _426
REMARK  169  A    between atoms: _429  and  _431
REMARK  170  A    between atoms: _431  and  _432
REMARK  171  A    between atoms: _436  and  _437
REMARK  172  A    between atoms: _442  and  _444
REMARK  173  A    between atoms: _444  and  _445
REMARK  174  A    between atoms: _444  and  _447
REMARK  175  A    between atoms: _447  and  _448
REMARK  176  A    between atoms: _458  and  _460
REMARK  177  A    between atoms: _460  and  _461
REMARK  178  A    between atoms: _460  and  _463
REMARK  179  A    between atoms: _463  and  _464
REMARK  180  A    between atoms: _470  and  _472
REMARK  181  A    between atoms: _472  and  _473
REMARK  182  A    between atoms: _472  and  _475
REMARK  183  A    between atoms: _475  and  _476
REMARK  184  A    between atoms: FE_479  and  _486
REMARK  185  A    between atoms: CO_480  and  _486
REMARK                            x       y       z     vdW  Elec       q    Type
REMARK                         _______ _______ _______ _____ _____    ______ ____
ROOT
ATOM      1  CA  LEU A   1      24.449 -15.758  -5.558  0.00  0.00    +0.133 C 
ENDROOT
BRANCH   1   2
ATOM      2  N   LEU A   1      24.587 -14.722  -4.533  0.00  0.00    -0.239 NA
ATOM      3  H   LEU A   1      25.382 -14.055  -4.601  0.00  0.00    +0.142 HD
ENDBRANCH   1   2
BRANCH   1   4
ATOM      4  C   LEU A   1      25.618 -16.750  -5.558  0.00  0.00    +0.224 C 
ATOM      5  O   LEU A   1      25.684 -17.648  -6.401  0.00  0.00    -0.287 OA
ENDBRANCH   1   4
BRANCH   1   6
ATOM      6  CB  LEU A   1      24.270 -15.130  -6.946  0.00  0.00    +0.025 C 
BRANCH   6   7
ATOM      7  CG  LEU A   1      23.014 -14.299  -7.230  0.00  0.00    +0.002 C 
ATOM      8  CD2 LEU A   1      21.738 -15.108  -7.035  0.00  0.00    +0.000 C 
ATOM      9  CD1 LEU A   1      23.073 -13.730  -8.640  0.00  0.00    +0.000 C 
ENDBRANCH   6   7
ENDBRANCH   1   6
TORSDOF 4
REMARK  Name = ../refined-set-2016/2vc7/2vc7_pocket.pdb
REMARK  185 active torsions:
REMARK  status: ('A' for Active; 'I' for Inactive)
REMARK    1  A    between atoms: _1  and  _3
REMARK    2  A    between atoms: _14  and  _17
REMARK    3  A    between atoms: _17  and  _18
REMARK    4  A    between atoms: _18  and  _19
REMARK    5  A    between atoms: _24  and  _25
REMARK    6  A    between atoms: _33  and  _35
REMARK    7  A    between atoms: _35  and  _36
REMARK    8  A    between atoms: _35  and  _38
REMARK    9  A    between atoms: _38  and  _39
REMARK   10  A    between atoms: _39  and  _40
REMARK   11  A    between atoms: _40  and  _41
REMARK   12  A    between atoms: _50  and  _52
REMARK   13  A    between atoms: _52  and  _53
REMARK   14  A    between atoms: _52  and  _55
REMARK   15  A    between atoms: _59  and  _60
REMARK   16  A    between atoms: _65  and  _67
REMARK   17  A    between atoms: _67  and  _68
REMARK   18  A    between atoms: _67  and  _70
REMARK   19  A    between atoms: _70  and  _71
REMARK   20  A    between atoms: _74  and  _76
REMARK   21  A    between atoms: _76  and  _77
REMARK   22  A    between atoms: _76  and  _79
REMARK   23  A    between atoms: _82  and  _84
REMARK   24  A    between atoms: _84  and  _85
REMARK   25  A    between atoms: _84  and  _87
REMARK   26  A    between atoms: _87  and  _88
REMARK   27  A    between atoms: _91  and  _93
REMARK   28  A    between atoms: _93  and  _94
REMARK   29  A    between atoms: _93  and  _96
REMARK   30  A    between atoms: _96  and  _97
REMARK   31  A    between atoms: _102  and  _103
REMARK   32  A    between atoms: _105  and  _107
REMARK   33  A    between atoms: _107  and  _108
REMARK   34  A    between atoms: _107  and  _110
REMARK   35  A    between atoms: _110  and  _111
REMARK   36  A    between atoms: _116  and  _117
REMARK   37  A    between atoms: _119  and  _121
REMARK   38  A    between atoms: _121  and  _122
REMARK   39  A    between atoms: _121  and  _128
REMARK   40  A    between atoms: _122  and  _123
REMARK   41  A    between atoms: _123  and  _124
REMARK   42  A    between atoms: _124  and  _125
REMARK   43  A    between atoms: _125  and  _126
REMARK   44  A    between atoms: _130  and  _131
REMARK   45  A    between atoms: _131  and  CO_480
REMARK   46  A    between atoms: _133  and  _135
REMARK   47  A    between atoms: _135  and  _136
REMARK   48  A    between atoms: _139  and  _141
REMARK   49  A    between atoms: _141  and  _142
REMARK   50  A    between atoms: _141  and  _144
REMARK   51  A    between atoms: _144  and  _145
REMARK   52  A    between atoms: _148  and  _150
REMARK   53  A    between atoms: _150  and  _151
REMARK   54  A    between atoms: _150  and  _153
REMARK   55  A    between atoms: _153  and  _154
REMARK   56  A    between atoms: _155  and  CO_480
REMARK   57  A    between atoms: _159  and  _161
REMARK   58  A    between atoms: _161  and  _162
REMARK   59  A    between atoms: _161  and  _164
REMARK   60  A    between atoms: _164  and  _165
REMARK   61  A    between atoms: _167  and  _169
REMARK   62  A    between atoms: _169  and  _170
REMARK   63  A    between atoms: _169  and  _172
REMARK   64  A    between atoms: _172  and  _173
REMARK   65  A    between atoms: _177  and  CO_480
REMARK   66  A    between atoms: _178  and  _180
REMARK   67  A    between atoms: _180  and  _181
REMARK   68  A    between atoms: _180  and  _183
REMARK   69  A    between atoms: _183  and  _184
REMARK   70  A    between atoms: _184  and  _185
REMARK   71  A    between atoms: _185  and  _186
REMARK   72  A    between atoms: _195  and  _197
REMARK   73  A    between atoms: _197  and  _198
REMARK   74  A    between atoms: _200  and  _202
REMARK   75  A    between atoms: _202  and  _203
REMARK   76  A    between atoms: _202  and  _205
REMARK   77  A    between atoms: _205  and  _206
REMARK   78  A    between atoms: _209  and  _211
REMARK   79  A    between atoms: _211  and  _212
REMARK   80  A    between atoms: _211  and  _214
REMARK   81  A    between atoms: _214  and  _215
REMARK   82  A    between atoms: _218  and  _220
REMARK   83  A    between atoms: _220  and  _221
REMARK   84  A    between atoms: _220  and  _223
REMARK   85  A    between atoms: _223  and  _224
REMARK   86  A    between atoms: _227  and  _229
REMARK   87  A    between atoms: _229  and  _230
REMARK   88  A    between atoms: _229  and  _232
REMARK   89  A    between atoms: _232  and  _233
REMARK   90  A    between atoms: _239  and  _241
REMARK   91  A    between atoms: _241  and  _242
REMARK   92  A    between atoms: _241  and  _244
REMARK   93  A    between atoms: _244  and  _245
REMARK   94  A    between atoms: _250  and  _252
REMARK   95  A    between atoms: _252  and  _253
REMARK   96  A    between atoms: _252  and  _255
REMARK   97  A    between atoms: _255  and  _256
REMARK   98  A    between atoms: _256  and  _258
REMARK   99  A    between atoms: _258  and  FE_479
REMARK  100  A    between atoms: _259  and  _261
REMARK  101  A    between atoms: _261  and  _262
REMARK  102  A    between atoms: _261  and  _264
REMARK  103  A    between atoms: _264  and  _265
REMARK  104  A    between atoms: _270  and  _271
REMARK  105  A    between atoms: _273  and  _275
REMARK  106  A    between atoms: _275  and  _276
REMARK  107  A    between atoms: _275  and  _278
REMARK  108  A    between atoms: _280  and  _282
REMARK  109  A    between atoms: _282  and  _283
REMARK  110  A    between atoms: _282  and  _285
REMARK  111  A    between atoms: _285  and  _286
REMARK  112  A    between atoms: _289  and  _291
REMARK  113  A    between atoms: _291  and  _292
REMARK  114  A    between atoms: _291  and  _294
REMARK  115  A    between atoms: _294  and  _295
REMARK  116  A    between atoms: _298  and  _300
REMARK  117  A    between atoms: _300  and  _301
REMARK  118  A    between atoms: _300  and  _303
REMARK  119  A    between atoms: _303  and  _304
REMARK  120  A    between atoms: _307  and  _309
REMARK  121  A    between atoms: _309  and  _310
REMARK  122  A    between atoms: _309  and  _312
REMARK  123  A    between atoms: _312  and  _313
REMARK  124  A    between atoms: _323  and  _325
REMARK  125  A    between atoms: _325  and  _326
REMARK  126  A    between atoms: _328  and  _330
REMARK  127  A    between atoms: _330  and  _331
REMARK  128  A    between atoms: _330  and  _333
REMARK  129  A    between atoms: _333  and  _334
REMARK  130  A    between atoms: _337  and  _339
REMARK  131  A    between atoms: _339  and  _340
REMARK  132  A    between atoms: _343  and  _345
REMARK  133  A    between atoms: _345  and  _346
REMARK  134  A    between atoms: _345  and  _348
REMARK  135  A    between atoms: _348  and  _349
REMARK  136  A    between atoms: _349  and  _350
REMARK  137  A    between atoms: _350  and  _351
REMARK  138  A    between atoms: _351  and  _352
REMARK  139  A    between atoms: _357  and  _358
REMARK  140  A    between atoms: _363  and  _365
REMARK  141  A    between atoms: _365  and  _366
REMARK  142  A    between atoms: _365  and  _368
REMARK  143  A    between atoms: _368  and  _369
REMARK  144  A    between atoms: _369  and  _370
REMARK  145  A    between atoms: _373  and  _375
REMARK  146  A    between atoms: _375  and  _376
REMARK  147  A    between atoms: _375  and  _378
REMARK  148  A    between atoms: _378  and  _379
REMARK  149  A    between atoms: _384  and  _385
REMARK  150  A    between atoms: _387  and  _389
REMARK  151  A    between atoms: _389  and  _390
REMARK  152  A    between atoms: _389  and  _392
REMARK  153  A    between atoms: _392  and  _393
REMARK  154  A    between atoms: _393  and  _394
REMARK  155  A    between atoms: _394  and  _395
REMARK  156  A    between atoms: _395  and  _396
REMARK  157  A    between atoms: _401  and  _402
REMARK  158  A    between atoms: _407  and  _409
REMARK  159  A    between atoms: _409  and  _410
REMARK  160  A    between atoms: _409  and  _412
REMARK  161  A    between atoms: _412  and  _413
REMARK  162  A    between atoms: _413  and  _414
REMARK  163  A    between atoms: _414  and  _415
REMARK  164  A    between atoms: _415  and  _416
REMARK  165  A    between atoms: _420  and  _422
REMARK  166  A    between atoms: _422  and  _423
REMARK  167  A    between atoms: _422  and  _425
REMARK  168  A    between atoms: _425  and  _426
REMARK  169  A    between atoms: _429  and  _431
REMARK  170  A    between atoms: _431  and  _432
REMARK  171  A    between atoms: _436  and  _437
REMARK  172  A    between atoms: _442  and  _444
REMARK  173  A    between atoms: _444  and  _445
REMARK  174  A    between atoms: _444  and  _447
REMARK  175  A    between atoms: _447  and  _448
REMARK  176  A    between atoms: _458  and  _460
REMARK  177  A    between atoms: _460  and  _461
REMARK  178  A    between atoms: _460  and  _463
REMARK  179  A    between atoms: _463  and  _464
REMARK  180  A    between atoms: _470  and  _472
REMARK  181  A    between atoms: _472  and  _473
REMARK  182  A    between atoms: _472  and  _475
REMARK  183  A    between atoms: _475  and  _476
REMARK  184  A    between atoms: FE_479  and  _486
REMARK  185  A    between atoms: CO_480  and  _486
REMARK                            x       y       z     vdW  Elec       q    Type
REMARK                         _______ _______ _______ _____ _____    ______ ____
ROOT
ATOM      1  CG  TYR A   1      21.183 -11.055  -6.458  0.00  0.00    -0.020 A 
ATOM      2  CD2 TYR A   1      20.256 -11.860  -5.794  0.00  0.00    -0.001 A 
ATOM      3  CE2 TYR A   1      19.150 -12.378  -6.454  0.00  0.00    +0.036 A 
ATOM      4  CZ  TYR A   1      18.969 -12.107  -7.799  0.00  0.00    +0.134 A 
ATOM      5  CE1 TYR A   1      19.880 -11.322  -8.487  0.00  0.00    +0.036 A 
ATOM      6  CD1 TYR A   1      20.984 -10.805  -7.815  0.00  0.00    -0.001 A 
ENDROOT
BRANCH   4   7
ATOM      7  OH  TYR A   1      17.877 -12.624  -8.451  0.00  0.00    -0.506 OA
ATOM      8  HH  TYR A   1      18.181 -13.205  -9.193  0.00  0.00    +0.292 HD
ENDBRANCH   4   7
BRANCH   1   9
ATOM      9  CB  TYR A   1      22.398 -10.506  -5.737  0.00  0.00    +0.051 C 
BRANCH   9  10
ATOM     10  CA  TYR A   1      22.188  -9.207  -4.949  0.00  0.00    +0.137 C 
BRANCH  10  11
ATOM     11  N   TYR A   1      23.475  -8.727  -4.462  0.00  0.00    -0.239 NA
ATOM     12  H   TYR A   1      24.069  -9.376  -3.908  0.00  0.00    +0.142 HD
ENDBRANCH  10  11
BRANCH  10  13
ATOM     13  C   TYR A   1      21.240  -9.427  -3.767  0.00  0.00    +0.224 C 
ATOM     14  O   TYR A   1      21.344 -10.430  -3.055  0.00  0.00    -0.287 OA
ENDBRANCH  10  13
ENDBRANCH   9  10
ENDBRANCH   1   9
TORSDOF 5
REMARK  Name = ../refined-set-2016/2vc7/2vc7_pocket.pdb
REMARK  185 active torsions:
REMARK  status: ('A' for Active; 'I' for Inactive)
REMARK    1  A    between atoms: _1  and  _3
REMARK    2  A    between atoms: _14  and  _17
REMARK    3  A    between atoms: _17  and  _18
REMARK    4  A    between atoms: _18  and  _19
REMARK    5  A    between atoms: _24  and  _25
REMARK    6  A    between atoms: _33  and  _35
REMARK    7  A    between atoms: _35  and  _36
REMARK    8  A    between atoms: _35  and  _38
REMARK    9  A    between atoms: _38  and  _39
REMARK   10  A    between atoms: _39  and  _40
REMARK   11  A    between atoms: _40  and  _41
REMARK   12  A    between atoms: _50  and  _52
REMARK   13  A    between atoms: _52  and  _53
REMARK   14  A    between atoms: _52  and  _55
REMARK   15  A    between atoms: _59  and  _60
REMARK   16  A    between atoms: _65  and  _67
REMARK   17  A    between atoms: _67  and  _68
REMARK   18  A    between atoms: _67  and  _70
REMARK   19  A    between atoms: _70  and  _71
REMARK   20  A    between atoms: _74  and  _76
REMARK   21  A    between atoms: _76  and  _77
REMARK   22  A    between atoms: _76  and  _79
REMARK   23  A    between atoms: _82  and  _84
REMARK   24  A    between atoms: _84  and  _85
REMARK   25  A    between atoms: _84  and  _87
REMARK   26  A    between atoms: _87  and  _88
REMARK   27  A    between atoms: _91  and  _93
REMARK   28  A    between atoms: _93  and  _94
REMARK   29  A    between atoms: _93  and  _96
REMARK   30  A    between atoms: _96  and  _97
REMARK   31  A    between atoms: _102  and  _103
REMARK   32  A    between atoms: _105  and  _107
REMARK   33  A    between atoms: _107  and  _108
REMARK   34  A    between atoms: _107  and  _110
REMARK   35  A    between atoms: _110  and  _111
REMARK   36  A    between atoms: _116  and  _117
REMARK   37  A    between atoms: _119  and  _121
REMARK   38  A    between atoms: _121  and  _122
REMARK   39  A    between atoms: _121  and  _128
REMARK   40  A    between atoms: _122  and  _123
REMARK   41  A    between atoms: _123  and  _124
REMARK   42  A    between atoms: _124  and  _125
REMARK   43  A    between atoms: _125  and  _126
REMARK   44  A    between atoms: _130  and  _131
REMARK   45  A    between atoms: _131  and  CO_480
REMARK   46  A    between atoms: _133  and  _135
REMARK   47  A    between atoms: _135  and  _136
REMARK   48  A    between atoms: _139  and  _141
REMARK   49  A    between atoms: _141  and  _142
REMARK   50  A    between atoms: _141  and  _144
REMARK   51  A    between atoms: _144  and  _145
REMARK   52  A    between atoms: _148  and  _150
REMARK   53  A    between atoms: _150  and  _151
REMARK   54  A    between atoms: _150  and  _153
REMARK   55  A    between atoms: _153  and  _154
REMARK   56  A    between atoms: _155  and  CO_480
REMARK   57  A    between atoms: _159  and  _161
REMARK   58  A    between atoms: _161  and  _162
REMARK   59  A    between atoms: _161  and  _164
REMARK   60  A    between atoms: _164  and  _165
REMARK   61  A    between atoms: _167  and  _169
REMARK   62  A    between atoms: _169  and  _170
REMARK   63  A    between atoms: _169  and  _172
REMARK   64  A    between atoms: _172  and  _173
REMARK   65  A    between atoms: _177  and  CO_480
REMARK   66  A    between atoms: _178  and  _180
REMARK   67  A    between atoms: _180  and  _181
REMARK   68  A    between atoms: _180  and  _183
REMARK   69  A    between atoms: _183  and  _184
REMARK   70  A    between atoms: _184  and  _185
REMARK   71  A    between atoms: _185  and  _186
REMARK   72  A    between atoms: _195  and  _197
REMARK   73  A    between atoms: _197  and  _198
REMARK   74  A    between atoms: _200  and  _202
REMARK   75  A    between atoms: _202  and  _203
REMARK   76  A    between atoms: _202  and  _205
REMARK   77  A    between atoms: _205  and  _206
REMARK   78  A    between atoms: _209  and  _211
REMARK   79  A    between atoms: _211  and  _212
REMARK   80  A    between atoms: _211  and  _214
REMARK   81  A    between atoms: _214  and  _215
REMARK   82  A    between atoms: _218  and  _220
REMARK   83  A    between atoms: _220  and  _221
REMARK   84  A    between atoms: _220  and  _223
REMARK   85  A    between atoms: _223  and  _224
REMARK   86  A    between atoms: _227  and  _229
REMARK   87  A    between atoms: _229  and  _230
REMARK   88  A    between atoms: _229  and  _232
REMARK   89  A    between atoms: _232  and  _233
REMARK   90  A    between atoms: _239  and  _241
REMARK   91  A    between atoms: _241  and  _242
REMARK   92  A    between atoms: _241  and  _244
REMARK   93  A    between atoms: _244  and  _245
REMARK   94  A    between atoms: _250  and  _252
REMARK   95  A    between atoms: _252  and  _253
REMARK   96  A    between atoms: _252  and  _255
REMARK   97  A    between atoms: _255  and  _256
REMARK   98  A    between atoms: _256  and  _258
REMARK   99  A    between atoms: _258  and  FE_479
REMARK  100  A    between atoms: _259  and  _261
REMARK  101  A    between atoms: _261  and  _262
REMARK  102  A    between atoms: _261  and  _264
REMARK  103  A    between atoms: _264  and  _265
REMARK  104  A    between atoms: _270  and  _271
REMARK  105  A    between atoms: _273  and  _275
REMARK  106  A    between atoms: _275  and  _276
REMARK  107  A    between atoms: _275  and  _278
REMARK  108  A    between atoms: _280  and  _282
REMARK  109  A    between atoms: _282  and  _283
REMARK  110  A    between atoms: _282  and  _285
REMARK  111  A    between atoms: _285  and  _286
REMARK  112  A    between atoms: _289  and  _291
REMARK  113  A    between atoms: _291  and  _292
REMARK  114  A    between atoms: _291  and  _294
REMARK  115  A    between atoms: _294  and  _295
REMARK  116  A    between atoms: _298  and  _300
REMARK  117  A    between atoms: _300  and  _301
REMARK  118  A    between atoms: _300  and  _303
REMARK  119  A    between atoms: _303  and  _304
REMARK  120  A    between atoms: _307  and  _309
REMARK  121  A    between atoms: _309  and  _310
REMARK  122  A    between atoms: _309  and  _312
REMARK  123  A    between atoms: _312  and  _313
REMARK  124  A    between atoms: _323  and  _325
REMARK  125  A    between atoms: _325  and  _326
REMARK  126  A    between atoms: _328  and  _330
REMARK  127  A    between atoms: _330  and  _331
REMARK  128  A    between atoms: _330  and  _333
REMARK  129  A    between atoms: _333  and  _334
REMARK  130  A    between atoms: _337  and  _339
REMARK  131  A    between atoms: _339  and  _340
REMARK  132  A    between atoms: _343  and  _345
REMARK  133  A    between atoms: _345  and  _346
REMARK  134  A    between atoms: _345  and  _348
REMARK  135  A    between atoms: _348  and  _349
REMARK  136  A    between atoms: _349  and  _350
REMARK  137  A    between atoms: _350  and  _351
REMARK  138  A    between atoms: _351  and  _352
REMARK  139  A    between atoms: _357  and  _358
REMARK  140  A    between atoms: _363  and  _365
REMARK  141  A    between atoms: _365  and  _366
REMARK  142  A    between atoms: _365  and  _368
REMARK  143  A    between atoms: _368  and  _369
REMARK  144  A    between atoms: _369  and  _370
REMARK  145  A    between atoms: _373  and  _375
REMARK  146  A    between atoms: _375  and  _376
REMARK  147  A    between atoms: _375  and  _378
REMARK  148  A    between atoms: _378  and  _379
REMARK  149  A    between atoms: _384  and  _385
REMARK  150  A    between atoms: _387  and  _389
REMARK  151  A    between atoms: _389  and  _390
REMARK  152  A    between atoms: _389  and  _392
REMARK  153  A    between atoms: _392  and  _393
REMARK  154  A    between atoms: _393  and  _394
REMARK  155  A    between atoms: _394  and  _395
REMARK  156  A    between atoms: _395  and  _396
REMARK  157  A    between atoms: _401  and  _402
REMARK  158  A    between atoms: _407  and  _409
REMARK  159  A    between atoms: _409  and  _410
REMARK  160  A    between atoms: _409  and  _412
REMARK  161  A    between atoms: _412  and  _413
REMARK  162  A    between atoms: _413  and  _414
REMARK  163  A    between atoms: _414  and  _415
REMARK  164  A    between atoms: _415  and  _416
REMARK  165  A    between atoms: _420  and  _422
REMARK  166  A    between atoms: _422  and  _423
REMARK  167  A    between atoms: _422  and  _425
REMARK  168  A    between atoms: _425  and  _426
REMARK  169  A    between atoms: _429  and  _431
REMARK  170  A    between atoms: _431  and  _432
REMARK  171  A    between atoms: _436  and  _437
REMARK  172  A    between atoms: _442  and  _444
REMARK  173  A    between atoms: _444  and  _445
REMARK  174  A    between atoms: _444  and  _447
REMARK  175  A    between atoms: _447  and  _448
REMARK  176  A    between atoms: _458  and  _460
REMARK  177  A    between atoms: _460  and  _461
REMARK  178  A    between atoms: _460  and  _463
REMARK  179  A    between atoms: _463  and  _464
REMARK  180  A    between atoms: _470  and  _472
REMARK  181  A    between atoms: _472  and  _473
REMARK  182  A    between atoms: _472  and  _475
REMARK  183  A    between atoms: _475  and  _476
REMARK  184  A    between atoms: FE_479  and  _486
REMARK  185  A    between atoms: CO_480  and  _486
REMARK                            x       y       z     vdW  Elec       q    Type
REMARK                         _______ _______ _______ _____ _____    ______ ____
ROOT
ATOM      1  CG  TYR A   1      14.812 -10.093  -4.166  0.00  0.00    -0.020 A 
ATOM      2  CD2 TYR A   1      14.120 -11.290  -4.346  0.00  0.00    -0.001 A 
ATOM      3  CE2 TYR A   1      14.331 -12.089  -5.466  0.00  0.00    +0.036 A 
ATOM      4  CZ  TYR A   1      15.236 -11.688  -6.432  0.00  0.00    +0.134 A 
ATOM      5  CE1 TYR A   1      15.934 -10.497  -6.289  0.00  0.00    +0.036 A 
ATOM      6  CD1 TYR A   1      15.713  -9.700  -5.163  0.00  0.00    -0.001 A 
ENDROOT
BRANCH   4   7
ATOM      7  OH  TYR A   1      15.438 -12.484  -7.537  0.00  0.00    -0.506 OA
ATOM      8  HH  TYR A   1      16.110 -12.061  -8.128  0.00  0.00    +0.292 HD
ENDBRANCH   4   7
BRANCH   1   9
ATOM      9  CB  TYR A   1      14.552  -9.234  -2.935  0.00  0.00    +0.051 C 
BRANCH   9  10
ATOM     10  CA  TYR A   1      15.533  -8.081  -2.672  0.00  0.00    +0.137 C 
BRANCH  10  11
ATOM     11  N   TYR A   1      16.880  -8.569  -2.368  0.00  0.00    -0.239 NA
ATOM     12  H   TYR A   1      17.006  -9.292  -1.631  0.00  0.00    +0.142 HD
ENDBRANCH  10  11
BRANCH  10  13
ATOM     13  C   TYR A   1      14.981  -7.189  -1.556  0.00  0.00    +0.224 C 
ATOM     14  O   TYR A   1      14.189  -6.283  -1.821  0.00  0.00    -0.287 OA
ENDBRANCH  10  13
ENDBRANCH   9  10
ENDBRANCH   1   9
TORSDOF 5
REMARK  Name = ../refined-set-2016/2vc7/2vc7_pocket.pdb
REMARK  185 active torsions:
REMARK  status: ('A' for Active; 'I' for Inactive)
REMARK    1  A    between atoms: _1  and  _3
REMARK    2  A    between atoms: _14  and  _17
REMARK    3  A    between atoms: _17  and  _18
REMARK    4  A    between atoms: _18  and  _19
REMARK    5  A    between atoms: _24  and  _25
REMARK    6  A    between atoms: _33  and  _35
REMARK    7  A    between atoms: _35  and  _36
REMARK    8  A    between atoms: _35  and  _38
REMARK    9  A    between atoms: _38  and  _39
REMARK   10  A    between atoms: _39  and  _40
REMARK   11  A    between atoms: _40  and  _41
REMARK   12  A    between atoms: _50  and  _52
REMARK   13  A    between atoms: _52  and  _53
REMARK   14  A    between atoms: _52  and  _55
REMARK   15  A    between atoms: _59  and  _60
REMARK   16  A    between atoms: _65  and  _67
REMARK   17  A    between atoms: _67  and  _68
REMARK   18  A    between atoms: _67  and  _70
REMARK   19  A    between atoms: _70  and  _71
REMARK   20  A    between atoms: _74  and  _76
REMARK   21  A    between atoms: _76  and  _77
REMARK   22  A    between atoms: _76  and  _79
REMARK   23  A    between atoms: _82  and  _84
REMARK   24  A    between atoms: _84  and  _85
REMARK   25  A    between atoms: _84  and  _87
REMARK   26  A    between atoms: _87  and  _88
REMARK   27  A    between atoms: _91  and  _93
REMARK   28  A    between atoms: _93  and  _94
REMARK   29  A    between atoms: _93  and  _96
REMARK   30  A    between atoms: _96  and  _97
REMARK   31  A    between atoms: _102  and  _103
REMARK   32  A    between atoms: _105  and  _107
REMARK   33  A    between atoms: _107  and  _108
REMARK   34  A    between atoms: _107  and  _110
REMARK   35  A    between atoms: _110  and  _111
REMARK   36  A    between atoms: _116  and  _117
REMARK   37  A    between atoms: _119  and  _121
REMARK   38  A    between atoms: _121  and  _122
REMARK   39  A    between atoms: _121  and  _128
REMARK   40  A    between atoms: _122  and  _123
REMARK   41  A    between atoms: _123  and  _124
REMARK   42  A    between atoms: _124  and  _125
REMARK   43  A    between atoms: _125  and  _126
REMARK   44  A    between atoms: _130  and  _131
REMARK   45  A    between atoms: _131  and  CO_480
REMARK   46  A    between atoms: _133  and  _135
REMARK   47  A    between atoms: _135  and  _136
REMARK   48  A    between atoms: _139  and  _141
REMARK   49  A    between atoms: _141  and  _142
REMARK   50  A    between atoms: _141  and  _144
REMARK   51  A    between atoms: _144  and  _145
REMARK   52  A    between atoms: _148  and  _150
REMARK   53  A    between atoms: _150  and  _151
REMARK   54  A    between atoms: _150  and  _153
REMARK   55  A    between atoms: _153  and  _154
REMARK   56  A    between atoms: _155  and  CO_480
REMARK   57  A    between atoms: _159  and  _161
REMARK   58  A    between atoms: _161  and  _162
REMARK   59  A    between atoms: _161  and  _164
REMARK   60  A    between atoms: _164  and  _165
REMARK   61  A    between atoms: _167  and  _169
REMARK   62  A    between atoms: _169  and  _170
REMARK   63  A    between atoms: _169  and  _172
REMARK   64  A    between atoms: _172  and  _173
REMARK   65  A    between atoms: _177  and  CO_480
REMARK   66  A    between atoms: _178  and  _180
REMARK   67  A    between atoms: _180  and  _181
REMARK   68  A    between atoms: _180  and  _183
REMARK   69  A    between atoms: _183  and  _184
REMARK   70  A    between atoms: _184  and  _185
REMARK   71  A    between atoms: _185  and  _186
REMARK   72  A    between atoms: _195  and  _197
REMARK   73  A    between atoms: _197  and  _198
REMARK   74  A    between atoms: _200  and  _202
REMARK   75  A    between atoms: _202  and  _203
REMARK   76  A    between atoms: _202  and  _205
REMARK   77  A    between atoms: _205  and  _206
REMARK   78  A    between atoms: _209  and  _211
REMARK   79  A    between atoms: _211  and  _212
REMARK   80  A    between atoms: _211  and  _214
REMARK   81  A    between atoms: _214  and  _215
REMARK   82  A    between atoms: _218  and  _220
REMARK   83  A    between atoms: _220  and  _221
REMARK   84  A    between atoms: _220  and  _223
REMARK   85  A    between atoms: _223  and  _224
REMARK   86  A    between atoms: _227  and  _229
REMARK   87  A    between atoms: _229  and  _230
REMARK   88  A    between atoms: _229  and  _232
REMARK   89  A    between atoms: _232  and  _233
REMARK   90  A    between atoms: _239  and  _241
REMARK   91  A    between atoms: _241  and  _242
REMARK   92  A    between atoms: _241  and  _244
REMARK   93  A    between atoms: _244  and  _245
REMARK   94  A    between atoms: _250  and  _252
REMARK   95  A    between atoms: _252  and  _253
REMARK   96  A    between atoms: _252  and  _255
REMARK   97  A    between atoms: _255  and  _256
REMARK   98  A    between atoms: _256  and  _258
REMARK   99  A    between atoms: _258  and  FE_479
REMARK  100  A    between atoms: _259  and  _261
REMARK  101  A    between atoms: _261  and  _262
REMARK  102  A    between atoms: _261  and  _264
REMARK  103  A    between atoms: _264  and  _265
REMARK  104  A    between atoms: _270  and  _271
REMARK  105  A    between atoms: _273  and  _275
REMARK  106  A    between atoms: _275  and  _276
REMARK  107  A    between atoms: _275  and  _278
REMARK  108  A    between atoms: _280  and  _282
REMARK  109  A    between atoms: _282  and  _283
REMARK  110  A    between atoms: _282  and  _285
REMARK  111  A    between atoms: _285  and  _286
REMARK  112  A    between atoms: _289  and  _291
REMARK  113  A    between atoms: _291  and  _292
REMARK  114  A    between atoms: _291  and  _294
REMARK  115  A    between atoms: _294  and  _295
REMARK  116  A    between atoms: _298  and  _300
REMARK  117  A    between atoms: _300  and  _301
REMARK  118  A    between atoms: _300  and  _303
REMARK  119  A    between atoms: _303  and  _304
REMARK  120  A    between atoms: _307  and  _309
REMARK  121  A    between atoms: _309  and  _310
REMARK  122  A    between atoms: _309  and  _312
REMARK  123  A    between atoms: _312  and  _313
REMARK  124  A    between atoms: _323  and  _325
REMARK  125  A    between atoms: _325  and  _326
REMARK  126  A    between atoms: _328  and  _330
REMARK  127  A    between atoms: _330  and  _331
REMARK  128  A    between atoms: _330  and  _333
REMARK  129  A    between atoms: _333  and  _334
REMARK  130  A    between atoms: _337  and  _339
REMARK  131  A    between atoms: _339  and  _340
REMARK  132  A    between atoms: _343  and  _345
REMARK  133  A    between atoms: _345  and  _346
REMARK  134  A    between atoms: _345  and  _348
REMARK  135  A    between atoms: _348  and  _349
REMARK  136  A    between atoms: _349  and  _350
REMARK  137  A    between atoms: _350  and  _351
REMARK  138  A    between atoms: _351  and  _352
REMARK  139  A    between atoms: _357  and  _358
REMARK  140  A    between atoms: _363  and  _365
REMARK  141  A    between atoms: _365  and  _366
REMARK  142  A    between atoms: _365  and  _368
REMARK  143  A    between atoms: _368  and  _369
REMARK  144  A    between atoms: _369  and  _370
REMARK  145  A    between atoms: _373  and  _375
REMARK  146  A    between atoms: _375  and  _376
REMARK  147  A    between atoms: _375  and  _378
REMARK  148  A    between atoms: _378  and  _379
REMARK  149  A    between atoms: _384  and  _385
REMARK  150  A    between atoms: _387  and  _389
REMARK  151  A    between atoms: _389  and  _390
REMARK  152  A    between atoms: _389  and  _392
REMARK  153  A    between atoms: _392  and  _393
REMARK  154  A    between atoms: _393  and  _394
REMARK  155  A    between atoms: _394  and  _395
REMARK  156  A    between atoms: _395  and  _396
REMARK  157  A    between atoms: _401  and  _402
REMARK  158  A    between atoms: _407  and  _409
REMARK  159  A    between atoms: _409  and  _410
REMARK  160  A    between atoms: _409  and  _412
REMARK  161  A    between atoms: _412  and  _413
REMARK  162  A    between atoms: _413  and  _414
REMARK  163  A    between atoms: _414  and  _415
REMARK  164  A    between atoms: _415  and  _416
REMARK  165  A    between atoms: _420  and  _422
REMARK  166  A    between atoms: _422  and  _423
REMARK  167  A    between atoms: _422  and  _425
REMARK  168  A    between atoms: _425  and  _426
REMARK  169  A    between atoms: _429  and  _431
REMARK  170  A    between atoms: _431  and  _432
REMARK  171  A    between atoms: _436  and  _437
REMARK  172  A    between atoms: _442  and  _444
REMARK  173  A    between atoms: _444  and  _445
REMARK  174  A    between atoms: _444  and  _447
REMARK  175  A    between atoms: _447  and  _448
REMARK  176  A    between atoms: _458  and  _460
REMARK  177  A    between atoms: _460  and  _461
REMARK  178  A    between atoms: _460  and  _463
REMARK  179  A    between atoms: _463  and  _464
REMARK  180  A    between atoms: _470  and  _472
REMARK  181  A    between atoms: _472  and  _473
REMARK  182  A    between atoms: _472  and  _475
REMARK  183  A    between atoms: _475  and  _476
REMARK  184  A    between atoms: FE_479  and  _486
REMARK  185  A    between atoms: CO_480  and  _486
REMARK                            x       y       z     vdW  Elec       q    Type
REMARK                         _______ _______ _______ _____ _____    ______ ____
ROOT
ATOM      1  CA  ALA A   1      19.135  -6.080  -7.919  0.00  0.00    +0.133 C 
ATOM      2  CB  ALA A   1      19.222  -7.538  -7.472  0.00  0.00    +0.027 C 
ENDROOT
BRANCH   1   3
ATOM      3  N   ALA A   1      20.437  -5.426  -7.753  0.00  0.00    -0.239 NA
ATOM      4  H   ALA A   1      20.649  -4.936  -6.861  0.00  0.00    +0.142 HD
ENDBRANCH   1   3
BRANCH   1   5
ATOM      5  C   ALA A   1      17.969  -5.384  -7.211  0.00  0.00    +0.224 C 
ATOM      6  O   ALA A   1      18.157  -4.662  -6.229  0.00  0.00    -0.287 OA
ENDBRANCH   1   5
TORSDOF 2
REMARK  Name = ../refined-set-2016/2vc7/2vc7_pocket.pdb
REMARK  185 active torsions:
REMARK  status: ('A' for Active; 'I' for Inactive)
REMARK    1  A    between atoms: _1  and  _3
REMARK    2  A    between atoms: _14  and  _17
REMARK    3  A    between atoms: _17  and  _18
REMARK    4  A    between atoms: _18  and  _19
REMARK    5  A    between atoms: _24  and  _25
REMARK    6  A    between atoms: _33  and  _35
REMARK    7  A    between atoms: _35  and  _36
REMARK    8  A    between atoms: _35  and  _38
REMARK    9  A    between atoms: _38  and  _39
REMARK   10  A    between atoms: _39  and  _40
REMARK   11  A    between atoms: _40  and  _41
REMARK   12  A    between atoms: _50  and  _52
REMARK   13  A    between atoms: _52  and  _53
REMARK   14  A    between atoms: _52  and  _55
REMARK   15  A    between atoms: _59  and  _60
REMARK   16  A    between atoms: _65  and  _67
REMARK   17  A    between atoms: _67  and  _68
REMARK   18  A    between atoms: _67  and  _70
REMARK   19  A    between atoms: _70  and  _71
REMARK   20  A    between atoms: _74  and  _76
REMARK   21  A    between atoms: _76  and  _77
REMARK   22  A    between atoms: _76  and  _79
REMARK   23  A    between atoms: _82  and  _84
REMARK   24  A    between atoms: _84  and  _85
REMARK   25  A    between atoms: _84  and  _87
REMARK   26  A    between atoms: _87  and  _88
REMARK   27  A    between atoms: _91  and  _93
REMARK   28  A    between atoms: _93  and  _94
REMARK   29  A    between atoms: _93  and  _96
REMARK   30  A    between atoms: _96  and  _97
REMARK   31  A    between atoms: _102  and  _103
REMARK   32  A    between atoms: _105  and  _107
REMARK   33  A    between atoms: _107  and  _108
REMARK   34  A    between atoms: _107  and  _110
REMARK   35  A    between atoms: _110  and  _111
REMARK   36  A    between atoms: _116  and  _117
REMARK   37  A    between atoms: _119  and  _121
REMARK   38  A    between atoms: _121  and  _122
REMARK   39  A    between atoms: _121  and  _128
REMARK   40  A    between atoms: _122  and  _123
REMARK   41  A    between atoms: _123  and  _124
REMARK   42  A    between atoms: _124  and  _125
REMARK   43  A    between atoms: _125  and  _126
REMARK   44  A    between atoms: _130  and  _131
REMARK   45  A    between atoms: _131  and  CO_480
REMARK   46  A    between atoms: _133  and  _135
REMARK   47  A    between atoms: _135  and  _136
REMARK   48  A    between atoms: _139  and  _141
REMARK   49  A    between atoms: _141  and  _142
REMARK   50  A    between atoms: _141  and  _144
REMARK   51  A    between atoms: _144  and  _145
REMARK   52  A    between atoms: _148  and  _150
REMARK   53  A    between atoms: _150  and  _151
REMARK   54  A    between atoms: _150  and  _153
REMARK   55  A    between atoms: _153  and  _154
REMARK   56  A    between atoms: _155  and  CO_480
REMARK   57  A    between atoms: _159  and  _161
REMARK   58  A    between atoms: _161  and  _162
REMARK   59  A    between atoms: _161  and  _164
REMARK   60  A    between atoms: _164  and  _165
REMARK   61  A    between atoms: _167  and  _169
REMARK   62  A    between atoms: _169  and  _170
REMARK   63  A    between atoms: _169  and  _172
REMARK   64  A    between atoms: _172  and  _173
REMARK   65  A    between atoms: _177  and  CO_480
REMARK   66  A    between atoms: _178  and  _180
REMARK   67  A    between atoms: _180  and  _181
REMARK   68  A    between atoms: _180  and  _183
REMARK   69  A    between atoms: _183  and  _184
REMARK   70  A    between atoms: _184  and  _185
REMARK   71  A    between atoms: _185  and  _186
REMARK   72  A    between atoms: _195  and  _197
REMARK   73  A    between atoms: _197  and  _198
REMARK   74  A    between atoms: _200  and  _202
REMARK   75  A    between atoms: _202  and  _203
REMARK   76  A    between atoms: _202  and  _205
REMARK   77  A    between atoms: _205  and  _206
REMARK   78  A    between atoms: _209  and  _211
REMARK   79  A    between atoms: _211  and  _212
REMARK   80  A    between atoms: _211  and  _214
REMARK   81  A    between atoms: _214  and  _215
REMARK   82  A    between atoms: _218  and  _220
REMARK   83  A    between atoms: _220  and  _221
REMARK   84  A    between atoms: _220  and  _223
REMARK   85  A    between atoms: _223  and  _224
REMARK   86  A    between atoms: _227  and  _229
REMARK   87  A    between atoms: _229  and  _230
REMARK   88  A    between atoms: _229  and  _232
REMARK   89  A    between atoms: _232  and  _233
REMARK   90  A    between atoms: _239  and  _241
REMARK   91  A    between atoms: _241  and  _242
REMARK   92  A    between atoms: _241  and  _244
REMARK   93  A    between atoms: _244  and  _245
REMARK   94  A    between atoms: _250  and  _252
REMARK   95  A    between atoms: _252  and  _253
REMARK   96  A    between atoms: _252  and  _255
REMARK   97  A    between atoms: _255  and  _256
REMARK   98  A    between atoms: _256  and  _258
REMARK   99  A    between atoms: _258  and  FE_479
REMARK  100  A    between atoms: _259  and  _261
REMARK  101  A    between atoms: _261  and  _262
REMARK  102  A    between atoms: _261  and  _264
REMARK  103  A    between atoms: _264  and  _265
REMARK  104  A    between atoms: _270  and  _271
REMARK  105  A    between atoms: _273  and  _275
REMARK  106  A    between atoms: _275  and  _276
REMARK  107  A    between atoms: _275  and  _278
REMARK  108  A    between atoms: _280  and  _282
REMARK  109  A    between atoms: _282  and  _283
REMARK  110  A    between atoms: _282  and  _285
REMARK  111  A    between atoms: _285  and  _286
REMARK  112  A    between atoms: _289  and  _291
REMARK  113  A    between atoms: _291  and  _292
REMARK  114  A    between atoms: _291  and  _294
REMARK  115  A    between atoms: _294  and  _295
REMARK  116  A    between atoms: _298  and  _300
REMARK  117  A    between atoms: _300  and  _301
REMARK  118  A    between atoms: _300  and  _303
REMARK  119  A    between atoms: _303  and  _304
REMARK  120  A    between atoms: _307  and  _309
REMARK  121  A    between atoms: _309  and  _310
REMARK  122  A    between atoms: _309  and  _312
REMARK  123  A    between atoms: _312  and  _313
REMARK  124  A    between atoms: _323  and  _325
REMARK  125  A    between atoms: _325  and  _326
REMARK  126  A    between atoms: _328  and  _330
REMARK  127  A    between atoms: _330  and  _331
REMARK  128  A    between atoms: _330  and  _333
REMARK  129  A    between atoms: _333  and  _334
REMARK  130  A    between atoms: _337  and  _339
REMARK  131  A    between atoms: _339  and  _340
REMARK  132  A    between atoms: _343  and  _345
REMARK  133  A    between atoms: _345  and  _346
REMARK  134  A    between atoms: _345  and  _348
REMARK  135  A    between atoms: _348  and  _349
REMARK  136  A    between atoms: _349  and  _350
REMARK  137  A    between atoms: _350  and  _351
REMARK  138  A    between atoms: _351  and  _352
REMARK  139  A    between atoms: _357  and  _358
REMARK  140  A    between atoms: _363  and  _365
REMARK  141  A    between atoms: _365  and  _366
REMARK  142  A    between atoms: _365  and  _368
REMARK  143  A    between atoms: _368  and  _369
REMARK  144  A    between atoms: _369  and  _370
REMARK  145  A    between atoms: _373  and  _375
REMARK  146  A    between atoms: _375  and  _376
REMARK  147  A    between atoms: _375  and  _378
REMARK  148  A    between atoms: _378  and  _379
REMARK  149  A    between atoms: _384  and  _385
REMARK  150  A    between atoms: _387  and  _389
REMARK  151  A    between atoms: _389  and  _390
REMARK  152  A    between atoms: _389  and  _392
REMARK  153  A    between atoms: _392  and  _393
REMARK  154  A    between atoms: _393  and  _394
REMARK  155  A    between atoms: _394  and  _395
REMARK  156  A    between atoms: _395  and  _396
REMARK  157  A    between atoms: _401  and  _402
REMARK  158  A    between atoms: _407  and  _409
REMARK  159  A    between atoms: _409  and  _410
REMARK  160  A    between atoms: _409  and  _412
REMARK  161  A    between atoms: _412  and  _413
REMARK  162  A    between atoms: _413  and  _414
REMARK  163  A    between atoms: _414  and  _415
REMARK  164  A    between atoms: _415  and  _416
REMARK  165  A    between atoms: _420  and  _422
REMARK  166  A    between atoms: _422  and  _423
REMARK  167  A    between atoms: _422  and  _425
REMARK  168  A    between atoms: _425  and  _426
REMARK  169  A    between atoms: _429  and  _431
REMARK  170  A    between atoms: _431  and  _432
REMARK  171  A    between atoms: _436  and  _437
REMARK  172  A    between atoms: _442  and  _444
REMARK  173  A    between atoms: _444  and  _445
REMARK  174  A    between atoms: _444  and  _447
REMARK  175  A    between atoms: _447  and  _448
REMARK  176  A    between atoms: _458  and  _460
REMARK  177  A    between atoms: _460  and  _461
REMARK  178  A    between atoms: _460  and  _463
REMARK  179  A    between atoms: _463  and  _464
REMARK  180  A    between atoms: _470  and  _472
REMARK  181  A    between atoms: _472  and  _473
REMARK  182  A    between atoms: _472  and  _475
REMARK  183  A    between atoms: _475  and  _476
REMARK  184  A    between atoms: FE_479  and  _486
REMARK  185  A    between atoms: CO_480  and  _486
REMARK                            x       y       z     vdW  Elec       q    Type
REMARK                         _______ _______ _______ _____ _____    ______ ____
ROOT
ATOM      1  CA  ASP A   1      12.361  -7.414  -7.303  0.00  0.00    +0.144 C 
ENDROOT
BRANCH   1   2
ATOM      2  N   ASP A   1      13.446  -6.540  -6.849  0.00  0.00    -0.239 NA
ATOM      3  H   ASP A   1      13.456  -6.209  -5.863  0.00  0.00    +0.142 HD
ENDBRANCH   1   2
BRANCH   1   4
ATOM      4  C   ASP A   1      11.005  -6.975  -6.741  0.00  0.00    +0.225 C 
ATOM      5  O   ASP A   1      10.745  -5.777  -6.616  0.00  0.00    -0.287 OA
ENDBRANCH   1   4
BRANCH   1   6
ATOM      6  CB  ASP A   1      12.668  -8.879  -6.966  0.00  0.00    +0.139 C 
BRANCH   6   7
ATOM      7  CG  ASP A   1      12.100  -9.849  -7.991  0.00  0.00    +0.367 C 
ATOM      8  OD2 ASP A   1      10.871 -10.079  -7.987  0.00  0.00    -0.246 OA
ATOM      9  OD1 ASP A   1      12.887 -10.389  -8.796  0.00  0.00    -0.246 OA
ENDBRANCH   6   7
ENDBRANCH   1   6
TORSDOF 4
REMARK  Name = ../refined-set-2016/2vc7/2vc7_pocket.pdb
REMARK  185 active torsions:
REMARK  status: ('A' for Active; 'I' for Inactive)
REMARK    1  A    between atoms: _1  and  _3
REMARK    2  A    between atoms: _14  and  _17
REMARK    3  A    between atoms: _17  and  _18
REMARK    4  A    between atoms: _18  and  _19
REMARK    5  A    between atoms: _24  and  _25
REMARK    6  A    between atoms: _33  and  _35
REMARK    7  A    between atoms: _35  and  _36
REMARK    8  A    between atoms: _35  and  _38
REMARK    9  A    between atoms: _38  and  _39
REMARK   10  A    between atoms: _39  and  _40
REMARK   11  A    between atoms: _40  and  _41
REMARK   12  A    between atoms: _50  and  _52
REMARK   13  A    between atoms: _52  and  _53
REMARK   14  A    between atoms: _52  and  _55
REMARK   15  A    between atoms: _59  and  _60
REMARK   16  A    between atoms: _65  and  _67
REMARK   17  A    between atoms: _67  and  _68
REMARK   18  A    between atoms: _67  and  _70
REMARK   19  A    between atoms: _70  and  _71
REMARK   20  A    between atoms: _74  and  _76
REMARK   21  A    between atoms: _76  and  _77
REMARK   22  A    between atoms: _76  and  _79
REMARK   23  A    between atoms: _82  and  _84
REMARK   24  A    between atoms: _84  and  _85
REMARK   25  A    between atoms: _84  and  _87
REMARK   26  A    between atoms: _87  and  _88
REMARK   27  A    between atoms: _91  and  _93
REMARK   28  A    between atoms: _93  and  _94
REMARK   29  A    between atoms: _93  and  _96
REMARK   30  A    between atoms: _96  and  _97
REMARK   31  A    between atoms: _102  and  _103
REMARK   32  A    between atoms: _105  and  _107
REMARK   33  A    between atoms: _107  and  _108
REMARK   34  A    between atoms: _107  and  _110
REMARK   35  A    between atoms: _110  and  _111
REMARK   36  A    between atoms: _116  and  _117
REMARK   37  A    between atoms: _119  and  _121
REMARK   38  A    between atoms: _121  and  _122
REMARK   39  A    between atoms: _121  and  _128
REMARK   40  A    between atoms: _122  and  _123
REMARK   41  A    between atoms: _123  and  _124
REMARK   42  A    between atoms: _124  and  _125
REMARK   43  A    between atoms: _125  and  _126
REMARK   44  A    between atoms: _130  and  _131
REMARK   45  A    between atoms: _131  and  CO_480
REMARK   46  A    between atoms: _133  and  _135
REMARK   47  A    between atoms: _135  and  _136
REMARK   48  A    between atoms: _139  and  _141
REMARK   49  A    between atoms: _141  and  _142
REMARK   50  A    between atoms: _141  and  _144
REMARK   51  A    between atoms: _144  and  _145
REMARK   52  A    between atoms: _148  and  _150
REMARK   53  A    between atoms: _150  and  _151
REMARK   54  A    between atoms: _150  and  _153
REMARK   55  A    between atoms: _153  and  _154
REMARK   56  A    between atoms: _155  and  CO_480
REMARK   57  A    between atoms: _159  and  _161
REMARK   58  A    between atoms: _161  and  _162
REMARK   59  A    between atoms: _161  and  _164
REMARK   60  A    between atoms: _164  and  _165
REMARK   61  A    between atoms: _167  and  _169
REMARK   62  A    between atoms: _169  and  _170
REMARK   63  A    between atoms: _169  and  _172
REMARK   64  A    between atoms: _172  and  _173
REMARK   65  A    between atoms: _177  and  CO_480
REMARK   66  A    between atoms: _178  and  _180
REMARK   67  A    between atoms: _180  and  _181
REMARK   68  A    between atoms: _180  and  _183
REMARK   69  A    between atoms: _183  and  _184
REMARK   70  A    between atoms: _184  and  _185
REMARK   71  A    between atoms: _185  and  _186
REMARK   72  A    between atoms: _195  and  _197
REMARK   73  A    between atoms: _197  and  _198
REMARK   74  A    between atoms: _200  and  _202
REMARK   75  A    between atoms: _202  and  _203
REMARK   76  A    between atoms: _202  and  _205
REMARK   77  A    between atoms: _205  and  _206
REMARK   78  A    between atoms: _209  and  _211
REMARK   79  A    between atoms: _211  and  _212
REMARK   80  A    between atoms: _211  and  _214
REMARK   81  A    between atoms: _214  and  _215
REMARK   82  A    between atoms: _218  and  _220
REMARK   83  A    between atoms: _220  and  _221
REMARK   84  A    between atoms: _220  and  _223
REMARK   85  A    between atoms: _223  and  _224
REMARK   86  A    between atoms: _227  and  _229
REMARK   87  A    between atoms: _229  and  _230
REMARK   88  A    between atoms: _229  and  _232
REMARK   89  A    between atoms: _232  and  _233
REMARK   90  A    between atoms: _239  and  _241
REMARK   91  A    between atoms: _241  and  _242
REMARK   92  A    between atoms: _241  and  _244
REMARK   93  A    between atoms: _244  and  _245
REMARK   94  A    between atoms: _250  and  _252
REMARK   95  A    between atoms: _252  and  _253
REMARK   96  A    between atoms: _252  and  _255
REMARK   97  A    between atoms: _255  and  _256
REMARK   98  A    between atoms: _256  and  _258
REMARK   99  A    between atoms: _258  and  FE_479
REMARK  100  A    between atoms: _259  and  _261
REMARK  101  A    between atoms: _261  and  _262
REMARK  102  A    between atoms: _261  and  _264
REMARK  103  A    between atoms: _264  and  _265
REMARK  104  A    between atoms: _270  and  _271
REMARK  105  A    between atoms: _273  and  _275
REMARK  106  A    between atoms: _275  and  _276
REMARK  107  A    between atoms: _275  and  _278
REMARK  108  A    between atoms: _280  and  _282
REMARK  109  A    between atoms: _282  and  _283
REMARK  110  A    between atoms: _282  and  _285
REMARK  111  A    between atoms: _285  and  _286
REMARK  112  A    between atoms: _289  and  _291
REMARK  113  A    between atoms: _291  and  _292
REMARK  114  A    between atoms: _291  and  _294
REMARK  115  A    between atoms: _294  and  _295
REMARK  116  A    between atoms: _298  and  _300
REMARK  117  A    between atoms: _300  and  _301
REMARK  118  A    between atoms: _300  and  _303
REMARK  119  A    between atoms: _303  and  _304
REMARK  120  A    between atoms: _307  and  _309
REMARK  121  A    between atoms: _309  and  _310
REMARK  122  A    between atoms: _309  and  _312
REMARK  123  A    between atoms: _312  and  _313
REMARK  124  A    between atoms: _323  and  _325
REMARK  125  A    between atoms: _325  and  _326
REMARK  126  A    between atoms: _328  and  _330
REMARK  127  A    between atoms: _330  and  _331
REMARK  128  A    between atoms: _330  and  _333
REMARK  129  A    between atoms: _333  and  _334
REMARK  130  A    between atoms: _337  and  _339
REMARK  131  A    between atoms: _339  and  _340
REMARK  132  A    between atoms: _343  and  _345
REMARK  133  A    between atoms: _345  and  _346
REMARK  134  A    between atoms: _345  and  _348
REMARK  135  A    between atoms: _348  and  _349
REMARK  136  A    between atoms: _349  and  _350
REMARK  137  A    between atoms: _350  and  _351
REMARK  138  A    between atoms: _351  and  _352
REMARK  139  A    between atoms: _357  and  _358
REMARK  140  A    between atoms: _363  and  _365
REMARK  141  A    between atoms: _365  and  _366
REMARK  142  A    between atoms: _365  and  _368
REMARK  143  A    between atoms: _368  and  _369
REMARK  144  A    between atoms: _369  and  _370
REMARK  145  A    between atoms: _373  and  _375
REMARK  146  A    between atoms: _375  and  _376
REMARK  147  A    between atoms: _375  and  _378
REMARK  148  A    between atoms: _378  and  _379
REMARK  149  A    between atoms: _384  and  _385
REMARK  150  A    between atoms: _387  and  _389
REMARK  151  A    between atoms: _389  and  _390
REMARK  152  A    between atoms: _389  and  _392
REMARK  153  A    between atoms: _392  and  _393
REMARK  154  A    between atoms: _393  and  _394
REMARK  155  A    between atoms: _394  and  _395
REMARK  156  A    between atoms: _395  and  _396
REMARK  157  A    between atoms: _401  and  _402
REMARK  158  A    between atoms: _407  and  _409
REMARK  159  A    between atoms: _409  and  _410
REMARK  160  A    between atoms: _409  and  _412
REMARK  161  A    between atoms: _412  and  _413
REMARK  162  A    between atoms: _413  and  _414
REMARK  163  A    between atoms: _414  and  _415
REMARK  164  A    between atoms: _415  and  _416
REMARK  165  A    between atoms: _420  and  _422
REMARK  166  A    between atoms: _422  and  _423
REMARK  167  A    between atoms: _422  and  _425
REMARK  168  A    between atoms: _425  and  _426
REMARK  169  A    between atoms: _429  and  _431
REMARK  170  A    between atoms: _431  and  _432
REMARK  171  A    between atoms: _436  and  _437
REMARK  172  A    between atoms: _442  and  _444
REMARK  173  A    between atoms: _444  and  _445
REMARK  174  A    between atoms: _444  and  _447
REMARK  175  A    between atoms: _447  and  _448
REMARK  176  A    between atoms: _458  and  _460
REMARK  177  A    between atoms: _460  and  _461
REMARK  178  A    between atoms: _460  and  _463
REMARK  179  A    between atoms: _463  and  _464
REMARK  180  A    between atoms: _470  and  _472
REMARK  181  A    between atoms: _472  and  _473
REMARK  182  A    between atoms: _472  and  _475
REMARK  183  A    between atoms: _475  and  _476
REMARK  184  A    between atoms: FE_479  and  _486
REMARK  185  A    between atoms: CO_480  and  _486
REMARK                            x       y       z     vdW  Elec       q    Type
REMARK                         _______ _______ _______ _____ _____    ______ ____
ROOT
ATOM      1  NE  ARG A   1      14.630 -13.441 -15.286  0.00  0.00    -0.265 N 
ATOM      2  CZ  ARG A   1      14.710 -13.410 -13.957  0.00  0.00    +0.342 C 
ATOM      3  NH2 ARG A   1      13.893 -12.630 -13.264  0.00  0.00    -0.292 N 
ATOM      4 HH21 ARG A   1      13.954 -12.605 -12.226  0.00  0.00    +0.255 HD
ATOM      5 HH22 ARG A   1      13.191 -12.043 -13.758  0.00  0.00    +0.255 HD
ATOM      6  NH1 ARG A   1      15.609 -14.149 -13.317  0.00  0.00    -0.292 N 
ATOM      7 HH11 ARG A   1      15.664 -14.118 -12.279  0.00  0.00    +0.255 HD
ATOM      8 HH12 ARG A   1      16.258 -14.759 -13.854  0.00  0.00    +0.255 HD
ATOM      9  HE  ARG A   1      13.915 -12.840 -15.744  0.00  0.00    +0.259 HD
ENDROOT
BRANCH   1  10
ATOM     10  CD  ARG A   1      15.481 -14.264 -16.143  0.00  0.00    +0.174 C 
BRANCH  10  11
ATOM     11  CG  ARG A   1      15.681 -13.687 -17.535  0.00  0.00    +0.045 C 
BRANCH  11  12
ATOM     12  CB  ARG A   1      14.949 -14.482 -18.614  0.00  0.00    +0.029 C 
BRANCH  12  13
ATOM     13  CA  ARG A   1      15.807 -14.764 -19.860  0.00  0.00    +0.133 C 
BRANCH  13  14
ATOM     14  N   ARG A   1      16.233 -13.521 -20.506  0.00  0.00    -0.239 NA
ATOM     15  H   ARG A   1      15.541 -12.969 -21.052  0.00  0.00    +0.142 HD
ENDBRANCH  13  14
BRANCH  13  16
ATOM     16  C   ARG A   1      15.106 -15.713 -20.839  0.00  0.00    +0.224 C 
ATOM     17  O   ARG A   1      14.072 -16.306 -20.519  0.00  0.00    -0.287 OA
ENDBRANCH  13  16
ENDBRANCH  12  13
ENDBRANCH  11  12
ENDBRANCH  10  11
ENDBRANCH   1  10
TORSDOF 6
REMARK  Name = ../refined-set-2016/2vc7/2vc7_pocket.pdb
REMARK  185 active torsions:
REMARK  status: ('A' for Active; 'I' for Inactive)
REMARK    1  A    between atoms: _1  and  _3
REMARK    2  A    between atoms: _14  and  _17
REMARK    3  A    between atoms: _17  and  _18
REMARK    4  A    between atoms: _18  and  _19
REMARK    5  A    between atoms: _24  and  _25
REMARK    6  A    between atoms: _33  and  _35
REMARK    7  A    between atoms: _35  and  _36
REMARK    8  A    between atoms: _35  and  _38
REMARK    9  A    between atoms: _38  and  _39
REMARK   10  A    between atoms: _39  and  _40
REMARK   11  A    between atoms: _40  and  _41
REMARK   12  A    between atoms: _50  and  _52
REMARK   13  A    between atoms: _52  and  _53
REMARK   14  A    between atoms: _52  and  _55
REMARK   15  A    between atoms: _59  and  _60
REMARK   16  A    between atoms: _65  and  _67
REMARK   17  A    between atoms: _67  and  _68
REMARK   18  A    between atoms: _67  and  _70
REMARK   19  A    between atoms: _70  and  _71
REMARK   20  A    between atoms: _74  and  _76
REMARK   21  A    between atoms: _76  and  _77
REMARK   22  A    between atoms: _76  and  _79
REMARK   23  A    between atoms: _82  and  _84
REMARK   24  A    between atoms: _84  and  _85
REMARK   25  A    between atoms: _84  and  _87
REMARK   26  A    between atoms: _87  and  _88
REMARK   27  A    between atoms: _91  and  _93
REMARK   28  A    between atoms: _93  and  _94
REMARK   29  A    between atoms: _93  and  _96
REMARK   30  A    between atoms: _96  and  _97
REMARK   31  A    between atoms: _102  and  _103
REMARK   32  A    between atoms: _105  and  _107
REMARK   33  A    between atoms: _107  and  _108
REMARK   34  A    between atoms: _107  and  _110
REMARK   35  A    between atoms: _110  and  _111
REMARK   36  A    between atoms: _116  and  _117
REMARK   37  A    between atoms: _119  and  _121
REMARK   38  A    between atoms: _121  and  _122
REMARK   39  A    between atoms: _121  and  _128
REMARK   40  A    between atoms: _122  and  _123
REMARK   41  A    between atoms: _123  and  _124
REMARK   42  A    between atoms: _124  and  _125
REMARK   43  A    between atoms: _125  and  _126
REMARK   44  A    between atoms: _130  and  _131
REMARK   45  A    between atoms: _131  and  CO_480
REMARK   46  A    between atoms: _133  and  _135
REMARK   47  A    between atoms: _135  and  _136
REMARK   48  A    between atoms: _139  and  _141
REMARK   49  A    between atoms: _141  and  _142
REMARK   50  A    between atoms: _141  and  _144
REMARK   51  A    between atoms: _144  and  _145
REMARK   52  A    between atoms: _148  and  _150
REMARK   53  A    between atoms: _150  and  _151
REMARK   54  A    between atoms: _150  and  _153
REMARK   55  A    between atoms: _153  and  _154
REMARK   56  A    between atoms: _155  and  CO_480
REMARK   57  A    between atoms: _159  and  _161
REMARK   58  A    between atoms: _161  and  _162
REMARK   59  A    between atoms: _161  and  _164
REMARK   60  A    between atoms: _164  and  _165
REMARK   61  A    between atoms: _167  and  _169
REMARK   62  A    between atoms: _169  and  _170
REMARK   63  A    between atoms: _169  and  _172
REMARK   64  A    between atoms: _172  and  _173
REMARK   65  A    between atoms: _177  and  CO_480
REMARK   66  A    between atoms: _178  and  _180
REMARK   67  A    between atoms: _180  and  _181
REMARK   68  A    between atoms: _180  and  _183
REMARK   69  A    between atoms: _183  and  _184
REMARK   70  A    between atoms: _184  and  _185
REMARK   71  A    between atoms: _185  and  _186
REMARK   72  A    between atoms: _195  and  _197
REMARK   73  A    between atoms: _197  and  _198
REMARK   74  A    between atoms: _200  and  _202
REMARK   75  A    between atoms: _202  and  _203
REMARK   76  A    between atoms: _202  and  _205
REMARK   77  A    between atoms: _205  and  _206
REMARK   78  A    between atoms: _209  and  _211
REMARK   79  A    between atoms: _211  and  _212
REMARK   80  A    between atoms: _211  and  _214
REMARK   81  A    between atoms: _214  and  _215
REMARK   82  A    between atoms: _218  and  _220
REMARK   83  A    between atoms: _220  and  _221
REMARK   84  A    between atoms: _220  and  _223
REMARK   85  A    between atoms: _223  and  _224
REMARK   86  A    between atoms: _227  and  _229
REMARK   87  A    between atoms: _229  and  _230
REMARK   88  A    between atoms: _229  and  _232
REMARK   89  A    between atoms: _232  and  _233
REMARK   90  A    between atoms: _239  and  _241
REMARK   91  A    between atoms: _241  and  _242
REMARK   92  A    between atoms: _241  and  _244
REMARK   93  A    between atoms: _244  and  _245
REMARK   94  A    between atoms: _250  and  _252
REMARK   95  A    between atoms: _252  and  _253
REMARK   96  A    between atoms: _252  and  _255
REMARK   97  A    between atoms: _255  and  _256
REMARK   98  A    between atoms: _256  and  _258
REMARK   99  A    between atoms: _258  and  FE_479
REMARK  100  A    between atoms: _259  and  _261
REMARK  101  A    between atoms: _261  and  _262
REMARK  102  A    between atoms: _261  and  _264
REMARK  103  A    between atoms: _264  and  _265
REMARK  104  A    between atoms: _270  and  _271
REMARK  105  A    between atoms: _273  and  _275
REMARK  106  A    between atoms: _275  and  _276
REMARK  107  A    between atoms: _275  and  _278
REMARK  108  A    between atoms: _280  and  _282
REMARK  109  A    between atoms: _282  and  _283
REMARK  110  A    between atoms: _282  and  _285
REMARK  111  A    between atoms: _285  and  _286
REMARK  112  A    between atoms: _289  and  _291
REMARK  113  A    between atoms: _291  and  _292
REMARK  114  A    between atoms: _291  and  _294
REMARK  115  A    between atoms: _294  and  _295
REMARK  116  A    between atoms: _298  and  _300
REMARK  117  A    between atoms: _300  and  _301
REMARK  118  A    between atoms: _300  and  _303
REMARK  119  A    between atoms: _303  and  _304
REMARK  120  A    between atoms: _307  and  _309
REMARK  121  A    between atoms: _309  and  _310
REMARK  122  A    between atoms: _309  and  _312
REMARK  123  A    between atoms: _312  and  _313
REMARK  124  A    between atoms: _323  and  _325
REMARK  125  A    between atoms: _325  and  _326
REMARK  126  A    between atoms: _328  and  _330
REMARK  127  A    between atoms: _330  and  _331
REMARK  128  A    between atoms: _330  and  _333
REMARK  129  A    between atoms: _333  and  _334
REMARK  130  A    between atoms: _337  and  _339
REMARK  131  A    between atoms: _339  and  _340
REMARK  132  A    between atoms: _343  and  _345
REMARK  133  A    between atoms: _345  and  _346
REMARK  134  A    between atoms: _345  and  _348
REMARK  135  A    between atoms: _348  and  _349
REMARK  136  A    between atoms: _349  and  _350
REMARK  137  A    between atoms: _350  and  _351
REMARK  138  A    between atoms: _351  and  _352
REMARK  139  A    between atoms: _357  and  _358
REMARK  140  A    between atoms: _363  and  _365
REMARK  141  A    between atoms: _365  and  _366
REMARK  142  A    between atoms: _365  and  _368
REMARK  143  A    between atoms: _368  and  _369
REMARK  144  A    between atoms: _369  and  _370
REMARK  145  A    between atoms: _373  and  _375
REMARK  146  A    between atoms: _375  and  _376
REMARK  147  A    between atoms: _375  and  _378
REMARK  148  A    between atoms: _378  and  _379
REMARK  149  A    between atoms: _384  and  _385
REMARK  150  A    between atoms: _387  and  _389
REMARK  151  A    between atoms: _389  and  _390
REMARK  152  A    between atoms: _389  and  _392
REMARK  153  A    between atoms: _392  and  _393
REMARK  154  A    between atoms: _393  and  _394
REMARK  155  A    between atoms: _394  and  _395
REMARK  156  A    between atoms: _395  and  _396
REMARK  157  A    between atoms: _401  and  _402
REMARK  158  A    between atoms: _407  and  _409
REMARK  159  A    between atoms: _409  and  _410
REMARK  160  A    between atoms: _409  and  _412
REMARK  161  A    between atoms: _412  and  _413
REMARK  162  A    between atoms: _413  and  _414
REMARK  163  A    between atoms: _414  and  _415
REMARK  164  A    between atoms: _415  and  _416
REMARK  165  A    between atoms: _420  and  _422
REMARK  166  A    between atoms: _422  and  _423
REMARK  167  A    between atoms: _422  and  _425
REMARK  168  A    between atoms: _425  and  _426
REMARK  169  A    between atoms: _429  and  _431
REMARK  170  A    between atoms: _431  and  _432
REMARK  171  A    between atoms: _436  and  _437
REMARK  172  A    between atoms: _442  and  _444
REMARK  173  A    between atoms: _444  and  _445
REMARK  174  A    between atoms: _444  and  _447
REMARK  175  A    between atoms: _447  and  _448
REMARK  176  A    between atoms: _458  and  _460
REMARK  177  A    between atoms: _460  and  _461
REMARK  178  A    between atoms: _460  and  _463
REMARK  179  A    between atoms: _463  and  _464
REMARK  180  A    between atoms: _470  and  _472
REMARK  181  A    between atoms: _472  and  _473
REMARK  182  A    between atoms: _472  and  _475
REMARK  183  A    between atoms: _475  and  _476
REMARK  184  A    between atoms: FE_479  and  _486
REMARK  185  A    between atoms: CO_480  and  _486
REMARK                            x       y       z     vdW  Elec       q    Type
REMARK                         _______ _______ _______ _____ _____    ______ ____
ROOT
ATOM      1  C   ASP A   3       7.899 -19.507 -18.893  0.00  0.00    +0.241 C 
ATOM      2  N   LEU A   4       8.282 -19.738 -17.638  0.00  0.00    -0.297 N 
ATOM      3  H   LEU A   4       9.200 -20.197 -17.469  0.00  0.00    +0.150 HD
ATOM      4  O   ASP A   3       6.820 -18.982 -19.184  0.00  0.00    -0.273 OA
ENDROOT
BRANCH   2   5
ATOM      5  CA  LEU A   4       7.452 -19.366 -16.488  0.00  0.00    +0.149 C 
BRANCH   5   6
ATOM      6  C   LEU A   4       7.360 -17.849 -16.292  0.00  0.00    +0.241 C 
ATOM      7  O   LEU A   4       6.379 -17.351 -15.735  0.00  0.00    -0.273 OA
ATOM      8  N   PHE A   5       8.378 -17.124 -16.752  0.00  0.00    -0.298 N 
ATOM      9  H   PHE A   5       9.227 -17.609 -17.105  0.00  0.00    +0.150 HD
BRANCH   8  10
ATOM     10  CA  PHE A   5       8.331 -15.664 -16.773  0.00  0.00    +0.141 C 
BRANCH  10  11
ATOM     11  C   PHE A   5       7.638 -15.172 -18.044  0.00  0.00    +0.227 C 
ATOM     12  O   PHE A   5       6.744 -14.324 -17.980  0.00  0.00    -0.286 OA
ENDBRANCH  10  11
BRANCH  10  13
ATOM     13  CB  PHE A   5       9.734 -15.060 -16.628  0.00  0.00    +0.054 C 
BRANCH  13  14
ATOM     14  CG  PHE A   5      10.427 -15.436 -15.344  0.00  0.00    -0.020 A 
ATOM     15  CD2 PHE A   5       9.793 -15.261 -14.115  0.00  0.00    -0.004 A 
ATOM     16  CE2 PHE A   5      10.426 -15.612 -12.928  0.00  0.00    -0.000 A 
ATOM     17  CZ  PHE A   5      11.707 -16.143 -12.961  0.00  0.00    -0.000 A 
ATOM     18  CE1 PHE A   5      12.349 -16.324 -14.184  0.00  0.00    -0.000 A 
ATOM     19  CD1 PHE A   5      11.707 -15.974 -15.364  0.00  0.00    -0.004 A 
ENDBRANCH  13  14
ENDBRANCH  10  13
ENDBRANCH   8  10
ENDBRANCH   5   6
BRANCH   5  20
ATOM     20  CB  LEU A   4       7.926 -20.069 -15.205  0.00  0.00    +0.029 C 
BRANCH  20  21
ATOM     21  CG  LEU A   4       9.150 -19.584 -14.416  0.00  0.00    +0.002 C 
ATOM     22  CD2 LEU A   4       9.132 -20.183 -13.018  0.00  0.00    +0.000 C 
ATOM     23  CD1 LEU A   4      10.459 -19.918 -15.118  0.00  0.00    +0.000 C 
ENDBRANCH  20  21
ENDBRANCH   5  20
ENDBRANCH   2   5
BRANCH   1  24
ATOM     24  CA  ASP A   3       8.870 -19.930 -19.996  0.00  0.00    +0.160 C 
BRANCH  24  27
ATOM     25  C   LEU A   2      11.005 -19.077 -19.097  0.00  0.00    +0.241 C 
ATOM     26  O   LEU A   2      10.576 -17.933 -18.917  0.00  0.00    -0.273 OA
ATOM     27  N   ASP A   3      10.259 -20.084 -19.550  0.00  0.00    -0.297 N 
ATOM     28  H   ASP A   3      10.685 -21.032 -19.590  0.00  0.00    +0.150 HD
BRANCH  25  29
ATOM     29  CA  LEU A   2      12.462 -19.434 -18.805  0.00  0.00    +0.149 C 
BRANCH  29  31
ATOM     30  C   GLY A   1      13.287 -20.467 -20.859  0.00  0.00    +0.240 C 
ATOM     31  N   LEU A   2      13.247 -19.420 -20.037  0.00  0.00    -0.297 N 
ATOM     32  H   LEU A   2      13.791 -18.567 -20.279  0.00  0.00    +0.150 HD
ATOM     33  O   GLY A   1      12.688 -21.519 -20.640  0.00  0.00    -0.274 OA
BRANCH  30  34
ATOM     34  CA  GLY A   1      14.127 -20.310 -22.111  0.00  0.00    +0.169 C 
BRANCH  34  35
ATOM     35  N   GLY A   1      14.179 -18.933 -22.592  0.00  0.00    -0.236 NA
ATOM     36  H   GLY A   1      13.309 -18.487 -22.946  0.00  0.00    +0.142 HD
ENDBRANCH  34  35
ENDBRANCH  30  34
ENDBRANCH  29  31
BRANCH  29  37
ATOM     37  CB  LEU A   2      13.080 -18.503 -17.754  0.00  0.00    +0.029 C 
BRANCH  37  38
ATOM     38  CG  LEU A   2      14.424 -18.965 -17.176  0.00  0.00    +0.002 C 
ATOM     39  CD2 LEU A   2      14.232 -20.052 -16.128  0.00  0.00    +0.000 C 
ATOM     40  CD1 LEU A   2      15.208 -17.804 -16.602  0.00  0.00    +0.000 C 
ENDBRANCH  37  38
ENDBRANCH  29  37
ENDBRANCH  25  29
ENDBRANCH  24  27
BRANCH  24  41
ATOM     41  CB  ASP A   3       8.375 -21.226 -20.652  0.00  0.00    +0.143 C 
BRANCH  41  42
ATOM     42  CG  ASP A   3       9.074 -21.527 -21.969  0.00  0.00    +0.367 C 
ATOM     43  OD2 ASP A   3       9.121 -22.713 -22.357  0.00  0.00    -0.246 OA
ATOM     44  OD1 ASP A   3       9.576 -20.587 -22.622  0.00  0.00    -0.246 OA
ENDBRANCH  41  42
ENDBRANCH  24  41
ENDBRANCH   1  24
TORSDOF 18
REMARK  Name = ../refined-set-2016/2vc7/2vc7_pocket.pdb
REMARK  185 active torsions:
REMARK  status: ('A' for Active; 'I' for Inactive)
REMARK    1  A    between atoms: _1  and  _3
REMARK    2  A    between atoms: _14  and  _17
REMARK    3  A    between atoms: _17  and  _18
REMARK    4  A    between atoms: _18  and  _19
REMARK    5  A    between atoms: _24  and  _25
REMARK    6  A    between atoms: _33  and  _35
REMARK    7  A    between atoms: _35  and  _36
REMARK    8  A    between atoms: _35  and  _38
REMARK    9  A    between atoms: _38  and  _39
REMARK   10  A    between atoms: _39  and  _40
REMARK   11  A    between atoms: _40  and  _41
REMARK   12  A    between atoms: _50  and  _52
REMARK   13  A    between atoms: _52  and  _53
REMARK   14  A    between atoms: _52  and  _55
REMARK   15  A    between atoms: _59  and  _60
REMARK   16  A    between atoms: _65  and  _67
REMARK   17  A    between atoms: _67  and  _68
REMARK   18  A    between atoms: _67  and  _70
REMARK   19  A    between atoms: _70  and  _71
REMARK   20  A    between atoms: _74  and  _76
REMARK   21  A    between atoms: _76  and  _77
REMARK   22  A    between atoms: _76  and  _79
REMARK   23  A    between atoms: _82  and  _84
REMARK   24  A    between atoms: _84  and  _85
REMARK   25  A    between atoms: _84  and  _87
REMARK   26  A    between atoms: _87  and  _88
REMARK   27  A    between atoms: _91  and  _93
REMARK   28  A    between atoms: _93  and  _94
REMARK   29  A    between atoms: _93  and  _96
REMARK   30  A    between atoms: _96  and  _97
REMARK   31  A    between atoms: _102  and  _103
REMARK   32  A    between atoms: _105  and  _107
REMARK   33  A    between atoms: _107  and  _108
REMARK   34  A    between atoms: _107  and  _110
REMARK   35  A    between atoms: _110  and  _111
REMARK   36  A    between atoms: _116  and  _117
REMARK   37  A    between atoms: _119  and  _121
REMARK   38  A    between atoms: _121  and  _122
REMARK   39  A    between atoms: _121  and  _128
REMARK   40  A    between atoms: _122  and  _123
REMARK   41  A    between atoms: _123  and  _124
REMARK   42  A    between atoms: _124  and  _125
REMARK   43  A    between atoms: _125  and  _126
REMARK   44  A    between atoms: _130  and  _131
REMARK   45  A    between atoms: _131  and  CO_480
REMARK   46  A    between atoms: _133  and  _135
REMARK   47  A    between atoms: _135  and  _136
REMARK   48  A    between atoms: _139  and  _141
REMARK   49  A    between atoms: _141  and  _142
REMARK   50  A    between atoms: _141  and  _144
REMARK   51  A    between atoms: _144  and  _145
REMARK   52  A    between atoms: _148  and  _150
REMARK   53  A    between atoms: _150  and  _151
REMARK   54  A    between atoms: _150  and  _153
REMARK   55  A    between atoms: _153  and  _154
REMARK   56  A    between atoms: _155  and  CO_480
REMARK   57  A    between atoms: _159  and  _161
REMARK   58  A    between atoms: _161  and  _162
REMARK   59  A    between atoms: _161  and  _164
REMARK   60  A    between atoms: _164  and  _165
REMARK   61  A    between atoms: _167  and  _169
REMARK   62  A    between atoms: _169  and  _170
REMARK   63  A    between atoms: _169  and  _172
REMARK   64  A    between atoms: _172  and  _173
REMARK   65  A    between atoms: _177  and  CO_480
REMARK   66  A    between atoms: _178  and  _180
REMARK   67  A    between atoms: _180  and  _181
REMARK   68  A    between atoms: _180  and  _183
REMARK   69  A    between atoms: _183  and  _184
REMARK   70  A    between atoms: _184  and  _185
REMARK   71  A    between atoms: _185  and  _186
REMARK   72  A    between atoms: _195  and  _197
REMARK   73  A    between atoms: _197  and  _198
REMARK   74  A    between atoms: _200  and  _202
REMARK   75  A    between atoms: _202  and  _203
REMARK   76  A    between atoms: _202  and  _205
REMARK   77  A    between atoms: _205  and  _206
REMARK   78  A    between atoms: _209  and  _211
REMARK   79  A    between atoms: _211  and  _212
REMARK   80  A    between atoms: _211  and  _214
REMARK   81  A    between atoms: _214  and  _215
REMARK   82  A    between atoms: _218  and  _220
REMARK   83  A    between atoms: _220  and  _221
REMARK   84  A    between atoms: _220  and  _223
REMARK   85  A    between atoms: _223  and  _224
REMARK   86  A    between atoms: _227  and  _229
REMARK   87  A    between atoms: _229  and  _230
REMARK   88  A    between atoms: _229  and  _232
REMARK   89  A    between atoms: _232  and  _233
REMARK   90  A    between atoms: _239  and  _241
REMARK   91  A    between atoms: _241  and  _242
REMARK   92  A    between atoms: _241  and  _244
REMARK   93  A    between atoms: _244  and  _245
REMARK   94  A    between atoms: _250  and  _252
REMARK   95  A    between atoms: _252  and  _253
REMARK   96  A    between atoms: _252  and  _255
REMARK   97  A    between atoms: _255  and  _256
REMARK   98  A    between atoms: _256  and  _258
REMARK   99  A    between atoms: _258  and  FE_479
REMARK  100  A    between atoms: _259  and  _261
REMARK  101  A    between atoms: _261  and  _262
REMARK  102  A    between atoms: _261  and  _264
REMARK  103  A    between atoms: _264  and  _265
REMARK  104  A    between atoms: _270  and  _271
REMARK  105  A    between atoms: _273  and  _275
REMARK  106  A    between atoms: _275  and  _276
REMARK  107  A    between atoms: _275  and  _278
REMARK  108  A    between atoms: _280  and  _282
REMARK  109  A    between atoms: _282  and  _283
REMARK  110  A    between atoms: _282  and  _285
REMARK  111  A    between atoms: _285  and  _286
REMARK  112  A    between atoms: _289  and  _291
REMARK  113  A    between atoms: _291  and  _292
REMARK  114  A    between atoms: _291  and  _294
REMARK  115  A    between atoms: _294  and  _295
REMARK  116  A    between atoms: _298  and  _300
REMARK  117  A    between atoms: _300  and  _301
REMARK  118  A    between atoms: _300  and  _303
REMARK  119  A    between atoms: _303  and  _304
REMARK  120  A    between atoms: _307  and  _309
REMARK  121  A    between atoms: _309  and  _310
REMARK  122  A    between atoms: _309  and  _312
REMARK  123  A    between atoms: _312  and  _313
REMARK  124  A    between atoms: _323  and  _325
REMARK  125  A    between atoms: _325  and  _326
REMARK  126  A    between atoms: _328  and  _330
REMARK  127  A    between atoms: _330  and  _331
REMARK  128  A    between atoms: _330  and  _333
REMARK  129  A    between atoms: _333  and  _334
REMARK  130  A    between atoms: _337  and  _339
REMARK  131  A    between atoms: _339  and  _340
REMARK  132  A    between atoms: _343  and  _345
REMARK  133  A    between atoms: _345  and  _346
REMARK  134  A    between atoms: _345  and  _348
REMARK  135  A    between atoms: _348  and  _349
REMARK  136  A    between atoms: _349  and  _350
REMARK  137  A    between atoms: _350  and  _351
REMARK  138  A    between atoms: _351  and  _352
REMARK  139  A    between atoms: _357  and  _358
REMARK  140  A    between atoms: _363  and  _365
REMARK  141  A    between atoms: _365  and  _366
REMARK  142  A    between atoms: _365  and  _368
REMARK  143  A    between atoms: _368  and  _369
REMARK  144  A    between atoms: _369  and  _370
REMARK  145  A    between atoms: _373  and  _375
REMARK  146  A    between atoms: _375  and  _376
REMARK  147  A    between atoms: _375  and  _378
REMARK  148  A    between atoms: _378  and  _379
REMARK  149  A    between atoms: _384  and  _385
REMARK  150  A    between atoms: _387  and  _389
REMARK  151  A    between atoms: _389  and  _390
REMARK  152  A    between atoms: _389  and  _392
REMARK  153  A    between atoms: _392  and  _393
REMARK  154  A    between atoms: _393  and  _394
REMARK  155  A    between atoms: _394  and  _395
REMARK  156  A    between atoms: _395  and  _396
REMARK  157  A    between atoms: _401  and  _402
REMARK  158  A    between atoms: _407  and  _409
REMARK  159  A    between atoms: _409  and  _410
REMARK  160  A    between atoms: _409  and  _412
REMARK  161  A    between atoms: _412  and  _413
REMARK  162  A    between atoms: _413  and  _414
REMARK  163  A    between atoms: _414  and  _415
REMARK  164  A    between atoms: _415  and  _416
REMARK  165  A    between atoms: _420  and  _422
REMARK  166  A    between atoms: _422  and  _423
REMARK  167  A    between atoms: _422  and  _425
REMARK  168  A    between atoms: _425  and  _426
REMARK  169  A    between atoms: _429  and  _431
REMARK  170  A    between atoms: _431  and  _432
REMARK  171  A    between atoms: _436  and  _437
REMARK  172  A    between atoms: _442  and  _444
REMARK  173  A    between atoms: _444  and  _445
REMARK  174  A    between atoms: _444  and  _447
REMARK  175  A    between atoms: _447  and  _448
REMARK  176  A    between atoms: _458  and  _460
REMARK  177  A    between atoms: _460  and  _461
REMARK  178  A    between atoms: _460  and  _463
REMARK  179  A    between atoms: _463  and  _464
REMARK  180  A    between atoms: _470  and  _472
REMARK  181  A    between atoms: _472  and  _473
REMARK  182  A    between atoms: _472  and  _475
REMARK  183  A    between atoms: _475  and  _476
REMARK  184  A    between atoms: FE_479  and  _486
REMARK  185  A    between atoms: CO_480  and  _486
REMARK                            x       y       z     vdW  Elec       q    Type
REMARK                         _______ _______ _______ _____ _____    ______ ____
ROOT
ATOM      1  C   LYS A   8      14.875 -28.796 -10.355  0.00  0.00    +0.244 C 
ATOM      2  N   PRO A   9      16.025 -29.350 -10.793  0.00  0.00    -0.272 N 
ATOM      3  CD  PRO A   9      17.316 -29.369 -10.082  0.00  0.00    +0.094 C 
ATOM      4  CG  PRO A   9      18.089 -30.429 -10.801  0.00  0.00    +0.024 C 
ATOM      5  CB  PRO A   9      17.588 -30.415 -12.203  0.00  0.00    +0.031 C 
ATOM      6  CA  PRO A   9      16.109 -30.017 -12.097  0.00  0.00    +0.152 C 
ATOM      7  O   LYS A   8      13.848 -28.753 -11.040  0.00  0.00    -0.273 OA
ENDROOT
BRANCH   6   8
ATOM      8  C   PRO A   9      15.190 -31.238 -12.158  0.00  0.00    +0.241 C 
ATOM      9  O   PRO A   9      15.616 -32.369 -11.898  0.00  0.00    -0.273 OA
ATOM     10  N   GLU A  10      13.933 -30.971 -12.503  0.00  0.00    -0.297 N 
ATOM     11  H   GLU A  10      13.720 -30.000 -12.809  0.00  0.00    +0.150 HD
BRANCH  10  12
ATOM     12  CA  GLU A  10      12.824 -31.928 -12.489  0.00  0.00    +0.149 C 
BRANCH  12  13
ATOM     13  C   GLU A  10      11.552 -31.110 -12.679  0.00  0.00    +0.241 C 
ATOM     14  N   TYR A  11      11.659 -29.817 -12.371  0.00  0.00    -0.297 N 
ATOM     15  H   TYR A  11      12.497 -29.502 -11.842  0.00  0.00    +0.150 HD
ATOM     16  O   GLU A  10      10.511 -31.634 -13.079  0.00  0.00    -0.273 OA
BRANCH  14  17
ATOM     17  CA  TYR A  11      10.658 -28.825 -12.740  0.00  0.00    +0.153 C 
BRANCH  17  18
ATOM     18  C   TYR A  11      10.976 -28.272 -14.127  0.00  0.00    +0.241 C 
ATOM     19  N   LYS A  12      12.162 -28.606 -14.637  0.00  0.00    -0.297 N 
ATOM     20  H   LYS A  12      12.770 -29.257 -14.100  0.00  0.00    +0.150 HD
ATOM     21  O   TYR A  11      10.163 -27.554 -14.714  0.00  0.00    -0.273 OA
BRANCH  19  22
ATOM     22  CA  LYS A  12      12.644 -28.095 -15.922  0.00  0.00    +0.149 C 
BRANCH  22  23
ATOM     23  C   LYS A  12      11.651 -28.302 -17.078  0.00  0.00    +0.244 C 
ATOM     24  N   PRO A  13      11.206 -29.557 -17.327  0.00  0.00    -0.272 N 
ATOM     25  CD  PRO A  13      11.572 -30.830 -16.677  0.00  0.00    +0.094 C 
ATOM     26  CG  PRO A  13      11.201 -31.846 -17.704  0.00  0.00    +0.024 C 
ATOM     27  CB  PRO A  13       9.994 -31.292 -18.361  0.00  0.00    +0.031 C 
ATOM     28  CA  PRO A  13      10.222 -29.776 -18.398  0.00  0.00    +0.152 C 
ATOM     29  O   LYS A  12      11.274 -27.330 -17.724  0.00  0.00    -0.273 OA
BRANCH  28  30
ATOM     30  C   PRO A  13       8.893 -29.047 -18.176  0.00  0.00    +0.241 C 
ATOM     31  N   LYS A  14       8.604 -28.695 -16.925  0.00  0.00    -0.297 N 
ATOM     32  H   LYS A  14       9.301 -28.887 -16.177  0.00  0.00    +0.150 HD
ATOM     33  O   PRO A  13       8.154 -28.810 -19.134  0.00  0.00    -0.273 OA
BRANCH  31  34
ATOM     34  CA  LYS A  14       7.343 -28.049 -16.564  0.00  0.00    +0.149 C 
BRANCH  34  35
ATOM     35  C   LYS A  14       7.420 -26.525 -16.662  0.00  0.00    +0.241 C 
ATOM     36  N   LEU A  15       8.536 -25.954 -16.209  0.00  0.00    -0.297 N 
ATOM     37  H   LEU A  15       9.330 -26.561 -15.923  0.00  0.00    +0.150 HD
ATOM     38  O   LYS A  14       6.486 -25.885 -17.150  0.00  0.00    -0.273 OA
BRANCH  36  39
ATOM     39  CA  LEU A  15       8.682 -24.498 -16.100  0.00  0.00    +0.149 C 
BRANCH  39  40
ATOM     40  C   LEU A  15       9.568 -23.870 -17.178  0.00  0.00    +0.241 C 
ATOM     41  N   ALA A  16      10.628 -24.576 -17.571  0.00  0.00    -0.297 N 
ATOM     42  H   ALA A  16      10.782 -25.519 -17.161  0.00  0.00    +0.150 HD
ATOM     43  O   LEU A  15       9.295 -22.757 -17.634  0.00  0.00    -0.273 OA
BRANCH  41  44
ATOM     44  CA  ALA A  16      11.584 -24.071 -18.560  0.00  0.00    +0.149 C 
ATOM     45  CB  ALA A  16      12.689 -23.279 -17.861  0.00  0.00    +0.031 C 
BRANCH  44  46
ATOM     46  C   ALA A  16      12.177 -25.209 -19.408  0.00  0.00    +0.244 C 
ATOM     47  O   ALA A  16      13.361 -25.530 -19.274  0.00  0.00    -0.273 OA
ATOM     48  N   PRO A  17      11.351 -25.820 -20.285  0.00  0.00    -0.273 N 
ATOM     49  CD  PRO A  17       9.991 -25.382 -20.652  0.00  0.00    +0.094 C 
ATOM     50  CG  PRO A  17       9.716 -26.136 -21.913  0.00  0.00    +0.024 C 
ATOM     51  CB  PRO A  17      10.465 -27.413 -21.782  0.00  0.00    +0.030 C 
ATOM     52  CA  PRO A  17      11.733 -27.050 -20.998  0.00  0.00    +0.140 C 
BRANCH  52  53
ATOM     53  C   PRO A  17      12.931 -26.930 -21.946  0.00  0.00    +0.227 C 
ATOM     54  O   PRO A  17      13.730 -27.865 -22.037  0.00  0.00    -0.286 OA
ENDBRANCH  52  53
ENDBRANCH  44  46
ENDBRANCH  41  44
ENDBRANCH  39  40
BRANCH  39  55
ATOM     55  CB  LEU A  15       9.201 -24.110 -14.709  0.00  0.00    +0.029 C 
BRANCH  55  56
ATOM     56  CG  LEU A  15       8.398 -24.501 -13.463  0.00  0.00    +0.002 C 
ATOM     57  CD2 LEU A  15       9.186 -24.153 -12.210  0.00  0.00    +0.000 C 
ATOM     58  CD1 LEU A  15       7.022 -23.840 -13.432  0.00  0.00    +0.000 C 
ENDBRANCH  55  56
ENDBRANCH  39  55
ENDBRANCH  36  39
ENDBRANCH  34  35
BRANCH  34  59
ATOM     59  CB  LYS A  14       6.899 -28.471 -15.154  0.00  0.00    +0.029 C 
BRANCH  59  60
ATOM     60  CG  LYS A  14       6.598 -29.965 -14.991  0.00  0.00    +0.000 C 
BRANCH  60  61
ATOM     61  CD  LYS A  14       7.866 -30.779 -14.738  0.00  0.00    -0.024 C 
BRANCH  61  62
ATOM     62  CE  LYS A  14       7.637 -32.267 -14.965  0.00  0.00    -0.086 C 
BRANCH  62  63
ATOM     63  NZ  LYS A  14       8.899 -33.052 -14.832  0.00  0.00    +0.380 N 
ATOM     64  HZ1 LYS A  14       9.286 -32.924 -13.875  0.00  0.00    -0.089 HD
ATOM     65  HZ2 LYS A  14       8.698 -34.059 -14.994  0.00  0.00    -0.089 HD
ATOM     66  HZ3 LYS A  14       9.589 -32.718 -15.534  0.00  0.00    -0.089 HD
ENDBRANCH  62  63
ENDBRANCH  61  62
ENDBRANCH  60  61
ENDBRANCH  59  60
ENDBRANCH  34  59
ENDBRANCH  31  34
ENDBRANCH  28  30
ENDBRANCH  22  23
BRANCH  22  67
ATOM     67  CB  LYS A  12      14.037 -28.646 -16.261  0.00  0.00    +0.029 C 
BRANCH  67  68
ATOM     68  CG  LYS A  12      14.815 -27.793 -17.253  0.00  0.00    +0.000 C 
BRANCH  68  69
ATOM     69  CD  LYS A  12      16.200 -28.366 -17.522  0.00  0.00    -0.024 C 
BRANCH  69  70
ATOM     70  CE  LYS A  12      17.027 -27.446 -18.412  0.00  0.00    -0.086 C 
BRANCH  70  71
ATOM     71  NZ  LYS A  12      16.469 -27.311 -19.789  0.00  0.00    +0.380 N 
ATOM     72  HZ1 LYS A  12      15.507 -26.919 -19.735  0.00  0.00    -0.089 HD
ATOM     73  HZ2 LYS A  12      16.438 -28.246 -20.243  0.00  0.00    -0.089 HD
ATOM     74  HZ3 LYS A  12      17.074 -26.674 -20.346  0.00  0.00    -0.089 HD
ENDBRANCH  70  71
ENDBRANCH  69  70
ENDBRANCH  68  69
ENDBRANCH  67  68
ENDBRANCH  22  67
ENDBRANCH  19  22
ENDBRANCH  17  18
BRANCH  17  75
ATOM     75  CB  TYR A  11      10.631 -27.664 -11.738  0.00  0.00    +0.055 C 
BRANCH  75  76
ATOM     76  CG  TYR A  11      10.238 -28.020 -10.319  0.00  0.00    -0.020 A 
ATOM     77  CD2 TYR A  11      10.907 -27.453  -9.234  0.00  0.00    -0.001 A 
ATOM     78  CE2 TYR A  11      10.553 -27.764  -7.925  0.00  0.00    +0.036 A 
ATOM     79  CZ  TYR A  11       9.517 -28.653  -7.690  0.00  0.00    +0.134 A 
ATOM     80  CE1 TYR A  11       8.834 -29.229  -8.749  0.00  0.00    +0.036 A 
ATOM     81  CD1 TYR A  11       9.194 -28.909 -10.056  0.00  0.00    -0.001 A 
BRANCH  79  82
ATOM     82  OH  TYR A  11       9.165 -28.965  -6.397  0.00  0.00    -0.506 OA
ATOM     83  HH  TYR A  11       9.749 -28.470  -5.769  0.00  0.00    +0.292 HD
ENDBRANCH  79  82
ENDBRANCH  75  76
ENDBRANCH  17  75
ENDBRANCH  14  17
ENDBRANCH  12  13
BRANCH  12  84
ATOM     84  CB  GLU A  10      12.771 -32.738 -11.183  0.00  0.00    +0.041 C 
BRANCH  84  85
ATOM     85  CG  GLU A  10      12.632 -31.912  -9.904  0.00  0.00    +0.116 C 
BRANCH  85  86
ATOM     86  CD  GLU A  10      13.309 -32.558  -8.709  0.00  0.00    +0.365 C 
ATOM     87  OE2 GLU A  10      12.611 -32.835  -7.710  0.00  0.00    -0.246 OA
ATOM     88  OE1 GLU A  10      14.537 -32.790  -8.766  0.00  0.00    -0.246 OA
ENDBRANCH  85  86
ENDBRANCH  84  85
ENDBRANCH  12  84
ENDBRANCH  10  12
ENDBRANCH   6   8
BRANCH   1  89
ATOM     89  CA  LYS A   8      14.881 -28.183  -8.954  0.00  0.00    +0.149 C 
BRANCH  89  91
ATOM     90  C   ALA A   7      15.218 -25.853  -9.601  0.00  0.00    +0.241 C 
ATOM     91  N   LYS A   8      14.461 -26.785  -9.025  0.00  0.00    -0.297 N 
ATOM     92  H   LYS A   8      13.546 -26.510  -8.614  0.00  0.00    +0.150 HD
ATOM     93  O   ALA A   7      16.348 -26.085 -10.045  0.00  0.00    -0.273 OA
BRANCH  90  94
ATOM     94  CA  ALA A   7      14.622 -24.449  -9.693  0.00  0.00    +0.149 C 
ATOM     95  CB  ALA A   7      15.717 -23.429  -9.958  0.00  0.00    +0.031 C 
BRANCH  94  97
ATOM     96  C   THR A   6      12.575 -23.770  -8.524  0.00  0.00    +0.243 C 
ATOM     97  N   ALA A   7      13.872 -24.072  -8.498  0.00  0.00    -0.297 N 
ATOM     98  H   ALA A   7      14.372 -24.038  -7.587  0.00  0.00    +0.150 HD
ATOM     99  O   THR A   6      11.876 -23.868  -9.537  0.00  0.00    -0.273 OA
BRANCH  96 100
ATOM    100  CA  THR A   6      11.972 -23.293  -7.202  0.00  0.00    +0.176 C 
BRANCH 100 103
ATOM    101  C   GLY A   5      13.092 -24.777  -5.595  0.00  0.00    +0.243 C 
ATOM    102  O   GLY A   5      12.462 -25.770  -5.966  0.00  0.00    -0.273 OA
ATOM    103  N   THR A   6      12.879 -23.554  -6.081  0.00  0.00    -0.295 N 
ATOM    104  H   THR A   6      13.377 -22.751  -5.646  0.00  0.00    +0.150 HD
BRANCH 101 105
ATOM    105  CA  GLY A   5      14.166 -24.900  -4.527  0.00  0.00    +0.176 C 
BRANCH 105 107
ATOM    106  C   TRP A   4      16.068 -23.760  -5.570  0.00  0.00    +0.241 C 
ATOM    107  N   GLY A   5      15.184 -23.848  -4.577  0.00  0.00    -0.295 N 
ATOM    108  H   GLY A   5      15.218 -23.145  -3.811  0.00  0.00    +0.150 HD
ATOM    109  O   TRP A   4      16.084 -24.536  -6.529  0.00  0.00    -0.273 OA
BRANCH 106 110
ATOM    110  CA  TRP A   4      17.093 -22.632  -5.468  0.00  0.00    +0.153 C 
BRANCH 110 113
ATOM    111  C   ASP A   3      19.005 -24.120  -5.050  0.00  0.00    +0.241 C 
ATOM    112  O   ASP A   3      18.455 -24.676  -4.095  0.00  0.00    -0.273 OA
ATOM    113  N   TRP A   4      18.441 -23.134  -5.746  0.00  0.00    -0.297 N 
ATOM    114  H   TRP A   4      18.982 -22.701  -6.522  0.00  0.00    +0.150 HD
BRANCH 111 115
ATOM    115  CA  ASP A   3      20.413 -24.545  -5.487  0.00  0.00    +0.160 C 
BRANCH 115 117
ATOM    116  C   ILE A   2      20.648 -24.321  -7.917  0.00  0.00    +0.241 C 
ATOM    117  N   ASP A   3      20.914 -23.868  -6.691  0.00  0.00    -0.297 N 
ATOM    118  H   ASP A   3      21.493 -23.011  -6.584  0.00  0.00    +0.150 HD
ATOM    119  O   ILE A   2      19.898 -25.276  -8.131  0.00  0.00    -0.273 OA
BRANCH 116 120
ATOM    120  CA  ILE A   2      21.342 -23.603  -9.082  0.00  0.00    +0.148 C 
BRANCH 120 122
ATOM    121  C   THR A   1      23.079 -24.310 -10.668  0.00  0.00    +0.241 C 
ATOM    122  N   ILE A   2      21.984 -24.582  -9.963  0.00  0.00    -0.297 N 
ATOM    123  H   ILE A   2      21.565 -25.531 -10.041  0.00  0.00    +0.150 HD
ATOM    124  O   THR A   1      23.633 -23.207 -10.658  0.00  0.00    -0.274 OA
BRANCH 121 125
ATOM    125  CA  THR A   1      23.635 -25.451 -11.518  0.00  0.00    +0.172 C 
BRANCH 125 126
ATOM    126  CB  THR A   1      24.683 -26.219 -10.682  0.00  0.00    +0.135 C 
ATOM    127  CG2 THR A   1      24.964 -27.597 -11.267  0.00  0.00    +0.034 C 
BRANCH 126 128
ATOM    128  OG1 THR A   1      25.900 -25.466 -10.628  0.00  0.00    -0.383 OA
ATOM    129  HG1 THR A   1      26.245 -25.332 -11.546  0.00  0.00    +0.210 HD
ENDBRANCH 126 128
ENDBRANCH 125 126
BRANCH 125 130
ATOM    130  N   THR A   1      24.186 -24.884 -12.752  0.00  0.00    -0.236 NA
ATOM    131  H   THR A   1      24.661 -23.961 -12.696  0.00  0.00    +0.142 HD
ENDBRANCH 125 130
ENDBRANCH 121 125
ENDBRANCH 120 122
BRANCH 120 132
ATOM    132  CB  ILE A   2      20.363 -22.664  -9.866  0.00  0.00    +0.027 C 
ATOM    133  CG2 ILE A   2      19.365 -23.471 -10.712  0.00  0.00    +0.002 C 
BRANCH 132 134
ATOM    134  CG1 ILE A   2      19.662 -21.675  -8.922  0.00  0.00    +0.002 C 
ATOM    135  CD1 ILE A   2      18.948 -20.532  -9.629  0.00  0.00    +0.000 C 
ENDBRANCH 132 134
ENDBRANCH 120 132
ENDBRANCH 116 120
ENDBRANCH 115 117
BRANCH 115 136
ATOM    136  CB  ASP A   3      21.412 -24.414  -4.325  0.00  0.00    +0.143 C 
BRANCH 136 137
ATOM    137  CG  ASP A   3      21.460 -23.011  -3.725  0.00  0.00    +0.367 C 
ATOM    138  OD2 ASP A   3      22.174 -22.835  -2.717  0.00  0.00    -0.246 OA
ATOM    139  OD1 ASP A   3      20.800 -22.085  -4.247  0.00  0.00    -0.246 OA
ENDBRANCH 136 137
ENDBRANCH 115 136
ENDBRANCH 111 115
ENDBRANCH 110 113
BRANCH 110 140
ATOM    140  CB  TRP A   4      16.728 -21.514  -6.451  0.00  0.00    +0.057 C 
BRANCH 140 141
ATOM    141  CG  TRP A   4      17.500 -20.220  -6.293  0.00  0.00    -0.002 A 
ATOM    142  CD1 TRP A   4      18.771 -20.063  -5.808  0.00  0.00    +0.068 A 
ATOM    143  NE1 TRP A   4      19.131 -18.738  -5.837  0.00  0.00    -0.352 N 
ATOM    144  HE1 TRP A   4      20.041 -18.352  -5.514  0.00  0.00    +0.166 HD
ATOM    145  CE2 TRP A   4      18.096 -18.008  -6.360  0.00  0.00    +0.056 A 
ATOM    146  CZ2 TRP A   4      17.989 -16.631  -6.588  0.00  0.00    +0.017 A 
ATOM    147  CH2 TRP A   4      16.817 -16.169  -7.129  0.00  0.00    +0.001 A 
ATOM    148  CZ3 TRP A   4      15.760 -17.041  -7.444  0.00  0.00    +0.000 A 
ATOM    149  CE3 TRP A   4      15.866 -18.409  -7.218  0.00  0.00    +0.001 A 
ATOM    150  CD2 TRP A   4      17.052 -18.909  -6.663  0.00  0.00    +0.013 A 
ENDBRANCH 140 141
ENDBRANCH 110 140
ENDBRANCH 106 110
ENDBRANCH 105 107
ENDBRANCH 101 105
ENDBRANCH 100 103
BRANCH 100 151
ATOM    151  CB  THR A   6      11.636 -21.787  -7.333  0.00  0.00    +0.137 C 
ATOM    152  CG2 THR A   6      10.714 -21.331  -6.217  0.00  0.00    +0.034 C 
BRANCH 151 153
ATOM    153  OG1 THR A   6      12.844 -21.016  -7.290  0.00  0.00    -0.382 OA
ATOM    154  HG1 THR A   6      12.624 -20.055  -7.374  0.00  0.00    +0.210 HD
ENDBRANCH 151 153
ENDBRANCH 100 151
ENDBRANCH  96 100
ENDBRANCH  94  97
ENDBRANCH  90  94
ENDBRANCH  89  91
BRANCH  89 155
ATOM    155  CB  LYS A   8      13.966 -28.989  -8.025  0.00  0.00    +0.029 C 
BRANCH 155 156
ATOM    156  CG  LYS A   8      14.116 -28.683  -6.543  0.00  0.00    +0.000 C 
BRANCH 156 157
ATOM    157  CD  LYS A   8      13.042 -29.397  -5.733  0.00  0.00    -0.024 C 
BRANCH 157 158
ATOM    158  CE  LYS A   8      13.147 -29.063  -4.254  0.00  0.00    -0.086 C 
BRANCH 158 159
ATOM    159  NZ  LYS A   8      12.003 -29.617  -3.476  0.00  0.00    +0.380 N 
ATOM    160  HZ1 LYS A   8      12.114 -29.366  -2.473  0.00  0.00    -0.089 HD
ATOM    161  HZ2 LYS A   8      11.986 -30.652  -3.576  0.00  0.00    -0.089 HD
ATOM    162  HZ3 LYS A   8      11.113 -29.218  -3.838  0.00  0.00    -0.089 HD
ENDBRANCH 158 159
ENDBRANCH 157 158
ENDBRANCH 156 157
ENDBRANCH 155 156
ENDBRANCH  89 155
ENDBRANCH   1  89
TORSDOF 64
REMARK  Name = ../refined-set-2016/2vc7/2vc7_pocket.pdb
REMARK  185 active torsions:
REMARK  status: ('A' for Active; 'I' for Inactive)
REMARK    1  A    between atoms: _1  and  _3
REMARK    2  A    between atoms: _14  and  _17
REMARK    3  A    between atoms: _17  and  _18
REMARK    4  A    between atoms: _18  and  _19
REMARK    5  A    between atoms: _24  and  _25
REMARK    6  A    between atoms: _33  and  _35
REMARK    7  A    between atoms: _35  and  _36
REMARK    8  A    between atoms: _35  and  _38
REMARK    9  A    between atoms: _38  and  _39
REMARK   10  A    between atoms: _39  and  _40
REMARK   11  A    between atoms: _40  and  _41
REMARK   12  A    between atoms: _50  and  _52
REMARK   13  A    between atoms: _52  and  _53
REMARK   14  A    between atoms: _52  and  _55
REMARK   15  A    between atoms: _59  and  _60
REMARK   16  A    between atoms: _65  and  _67
REMARK   17  A    between atoms: _67  and  _68
REMARK   18  A    between atoms: _67  and  _70
REMARK   19  A    between atoms: _70  and  _71
REMARK   20  A    between atoms: _74  and  _76
REMARK   21  A    between atoms: _76  and  _77
REMARK   22  A    between atoms: _76  and  _79
REMARK   23  A    between atoms: _82  and  _84
REMARK   24  A    between atoms: _84  and  _85
REMARK   25  A    between atoms: _84  and  _87
REMARK   26  A    between atoms: _87  and  _88
REMARK   27  A    between atoms: _91  and  _93
REMARK   28  A    between atoms: _93  and  _94
REMARK   29  A    between atoms: _93  and  _96
REMARK   30  A    between atoms: _96  and  _97
REMARK   31  A    between atoms: _102  and  _103
REMARK   32  A    between atoms: _105  and  _107
REMARK   33  A    between atoms: _107  and  _108
REMARK   34  A    between atoms: _107  and  _110
REMARK   35  A    between atoms: _110  and  _111
REMARK   36  A    between atoms: _116  and  _117
REMARK   37  A    between atoms: _119  and  _121
REMARK   38  A    between atoms: _121  and  _122
REMARK   39  A    between atoms: _121  and  _128
REMARK   40  A    between atoms: _122  and  _123
REMARK   41  A    between atoms: _123  and  _124
REMARK   42  A    between atoms: _124  and  _125
REMARK   43  A    between atoms: _125  and  _126
REMARK   44  A    between atoms: _130  and  _131
REMARK   45  A    between atoms: _131  and  CO_480
REMARK   46  A    between atoms: _133  and  _135
REMARK   47  A    between atoms: _135  and  _136
REMARK   48  A    between atoms: _139  and  _141
REMARK   49  A    between atoms: _141  and  _142
REMARK   50  A    between atoms: _141  and  _144
REMARK   51  A    between atoms: _144  and  _145
REMARK   52  A    between atoms: _148  and  _150
REMARK   53  A    between atoms: _150  and  _151
REMARK   54  A    between atoms: _150  and  _153
REMARK   55  A    between atoms: _153  and  _154
REMARK   56  A    between atoms: _155  and  CO_480
REMARK   57  A    between atoms: _159  and  _161
REMARK   58  A    between atoms: _161  and  _162
REMARK   59  A    between atoms: _161  and  _164
REMARK   60  A    between atoms: _164  and  _165
REMARK   61  A    between atoms: _167  and  _169
REMARK   62  A    between atoms: _169  and  _170
REMARK   63  A    between atoms: _169  and  _172
REMARK   64  A    between atoms: _172  and  _173
REMARK   65  A    between atoms: _177  and  CO_480
REMARK   66  A    between atoms: _178  and  _180
REMARK   67  A    between atoms: _180  and  _181
REMARK   68  A    between atoms: _180  and  _183
REMARK   69  A    between atoms: _183  and  _184
REMARK   70  A    between atoms: _184  and  _185
REMARK   71  A    between atoms: _185  and  _186
REMARK   72  A    between atoms: _195  and  _197
REMARK   73  A    between atoms: _197  and  _198
REMARK   74  A    between atoms: _200  and  _202
REMARK   75  A    between atoms: _202  and  _203
REMARK   76  A    between atoms: _202  and  _205
REMARK   77  A    between atoms: _205  and  _206
REMARK   78  A    between atoms: _209  and  _211
REMARK   79  A    between atoms: _211  and  _212
REMARK   80  A    between atoms: _211  and  _214
REMARK   81  A    between atoms: _214  and  _215
REMARK   82  A    between atoms: _218  and  _220
REMARK   83  A    between atoms: _220  and  _221
REMARK   84  A    between atoms: _220  and  _223
REMARK   85  A    between atoms: _223  and  _224
REMARK   86  A    between atoms: _227  and  _229
REMARK   87  A    between atoms: _229  and  _230
REMARK   88  A    between atoms: _229  and  _232
REMARK   89  A    between atoms: _232  and  _233
REMARK   90  A    between atoms: _239  and  _241
REMARK   91  A    between atoms: _241  and  _242
REMARK   92  A    between atoms: _241  and  _244
REMARK   93  A    between atoms: _244  and  _245
REMARK   94  A    between atoms: _250  and  _252
REMARK   95  A    between atoms: _252  and  _253
REMARK   96  A    between atoms: _252  and  _255
REMARK   97  A    between atoms: _255  and  _256
REMARK   98  A    between atoms: _256  and  _258
REMARK   99  A    between atoms: _258  and  FE_479
REMARK  100  A    between atoms: _259  and  _261
REMARK  101  A    between atoms: _261  and  _262
REMARK  102  A    between atoms: _261  and  _264
REMARK  103  A    between atoms: _264  and  _265
REMARK  104  A    between atoms: _270  and  _271
REMARK  105  A    between atoms: _273  and  _275
REMARK  106  A    between atoms: _275  and  _276
REMARK  107  A    between atoms: _275  and  _278
REMARK  108  A    between atoms: _280  and  _282
REMARK  109  A    between atoms: _282  and  _283
REMARK  110  A    between atoms: _282  and  _285
REMARK  111  A    between atoms: _285  and  _286
REMARK  112  A    between atoms: _289  and  _291
REMARK  113  A    between atoms: _291  and  _292
REMARK  114  A    between atoms: _291  and  _294
REMARK  115  A    between atoms: _294  and  _295
REMARK  116  A    between atoms: _298  and  _300
REMARK  117  A    between atoms: _300  and  _301
REMARK  118  A    between atoms: _300  and  _303
REMARK  119  A    between atoms: _303  and  _304
REMARK  120  A    between atoms: _307  and  _309
REMARK  121  A    between atoms: _309  and  _310
REMARK  122  A    between atoms: _309  and  _312
REMARK  123  A    between atoms: _312  and  _313
REMARK  124  A    between atoms: _323  and  _325
REMARK  125  A    between atoms: _325  and  _326
REMARK  126  A    between atoms: _328  and  _330
REMARK  127  A    between atoms: _330  and  _331
REMARK  128  A    between atoms: _330  and  _333
REMARK  129  A    between atoms: _333  and  _334
REMARK  130  A    between atoms: _337  and  _339
REMARK  131  A    between atoms: _339  and  _340
REMARK  132  A    between atoms: _343  and  _345
REMARK  133  A    between atoms: _345  and  _346
REMARK  134  A    between atoms: _345  and  _348
REMARK  135  A    between atoms: _348  and  _349
REMARK  136  A    between atoms: _349  and  _350
REMARK  137  A    between atoms: _350  and  _351
REMARK  138  A    between atoms: _351  and  _352
REMARK  139  A    between atoms: _357  and  _358
REMARK  140  A    between atoms: _363  and  _365
REMARK  141  A    between atoms: _365  and  _366
REMARK  142  A    between atoms: _365  and  _368
REMARK  143  A    between atoms: _368  and  _369
REMARK  144  A    between atoms: _369  and  _370
REMARK  145  A    between atoms: _373  and  _375
REMARK  146  A    between atoms: _375  and  _376
REMARK  147  A    between atoms: _375  and  _378
REMARK  148  A    between atoms: _378  and  _379
REMARK  149  A    between atoms: _384  and  _385
REMARK  150  A    between atoms: _387  and  _389
REMARK  151  A    between atoms: _389  and  _390
REMARK  152  A    between atoms: _389  and  _392
REMARK  153  A    between atoms: _392  and  _393
REMARK  154  A    between atoms: _393  and  _394
REMARK  155  A    between atoms: _394  and  _395
REMARK  156  A    between atoms: _395  and  _396
REMARK  157  A    between atoms: _401  and  _402
REMARK  158  A    between atoms: _407  and  _409
REMARK  159  A    between atoms: _409  and  _410
REMARK  160  A    between atoms: _409  and  _412
REMARK  161  A    between atoms: _412  and  _413
REMARK  162  A    between atoms: _413  and  _414
REMARK  163  A    between atoms: _414  and  _415
REMARK  164  A    between atoms: _415  and  _416
REMARK  165  A    between atoms: _420  and  _422
REMARK  166  A    between atoms: _422  and  _423
REMARK  167  A    between atoms: _422  and  _425
REMARK  168  A    between atoms: _425  and  _426
REMARK  169  A    between atoms: _429  and  _431
REMARK  170  A    between atoms: _431  and  _432
REMARK  171  A    between atoms: _436  and  _437
REMARK  172  A    between atoms: _442  and  _444
REMARK  173  A    between atoms: _444  and  _445
REMARK  174  A    between atoms: _444  and  _447
REMARK  175  A    between atoms: _447  and  _448
REMARK  176  A    between atoms: _458  and  _460
REMARK  177  A    between atoms: _460  and  _461
REMARK  178  A    between atoms: _460  and  _463
REMARK  179  A    between atoms: _463  and  _464
REMARK  180  A    between atoms: _470  and  _472
REMARK  181  A    between atoms: _472  and  _473
REMARK  182  A    between atoms: _472  and  _475
REMARK  183  A    between atoms: _475  and  _476
REMARK  184  A    between atoms: FE_479  and  _486
REMARK  185  A    between atoms: CO_480  and  _486
REMARK                            x       y       z     vdW  Elec       q    Type
REMARK                         _______ _______ _______ _____ _____    ______ ____
ROOT
ATOM      1  CG  TRP A   1      16.467 -22.024 -19.214  0.00  0.00    -0.002 A 
ATOM      2  CD2 TRP A   1      16.793 -22.083 -17.820  0.00  0.00    +0.013 A 
ATOM      3  CE3 TRP A   1      16.585 -23.038 -16.814  0.00  0.00    +0.001 A 
ATOM      4  CZ3 TRP A   1      17.060 -22.775 -15.535  0.00  0.00    +0.000 A 
ATOM      5  CH2 TRP A   1      17.737 -21.578 -15.244  0.00  0.00    +0.001 A 
ATOM      6  CZ2 TRP A   1      17.953 -20.625 -16.208  0.00  0.00    +0.017 A 
ATOM      7  CE2 TRP A   1      17.476 -20.890 -17.497  0.00  0.00    +0.056 A 
ATOM      8  NE1 TRP A   1      17.546 -20.135 -18.639  0.00  0.00    -0.352 N 
ATOM      9  HE1 TRP A   1      17.993 -19.199 -18.719  0.00  0.00    +0.166 HD
ATOM     10  CD1 TRP A   1      16.928 -20.817 -19.664  0.00  0.00    +0.068 A 
ENDROOT
BRANCH   1  11
ATOM     11  CB  TRP A   1      15.704 -23.068 -19.991  0.00  0.00    +0.053 C 
BRANCH  11  12
ATOM     12  CA  TRP A   1      16.227 -23.462 -21.378  0.00  0.00    +0.137 C 
BRANCH  12  13
ATOM     13  N   TRP A   1      15.281 -24.410 -21.962  0.00  0.00    -0.239 NA
ATOM     14  H   TRP A   1      14.597 -24.869 -21.327  0.00  0.00    +0.142 HD
ENDBRANCH  12  13
BRANCH  12  15
ATOM     15  C   TRP A   1      17.650 -24.028 -21.308  0.00  0.00    +0.224 C 
ATOM     16  O   TRP A   1      17.900 -25.028 -20.630  0.00  0.00    -0.287 OA
ENDBRANCH  12  15
ENDBRANCH  11  12
ENDBRANCH   1  11
TORSDOF 4
REMARK  Name = ../refined-set-2016/2vc7/2vc7_pocket.pdb
REMARK  185 active torsions:
REMARK  status: ('A' for Active; 'I' for Inactive)
REMARK    1  A    between atoms: _1  and  _3
REMARK    2  A    between atoms: _14  and  _17
REMARK    3  A    between atoms: _17  and  _18
REMARK    4  A    between atoms: _18  and  _19
REMARK    5  A    between atoms: _24  and  _25
REMARK    6  A    between atoms: _33  and  _35
REMARK    7  A    between atoms: _35  and  _36
REMARK    8  A    between atoms: _35  and  _38
REMARK    9  A    between atoms: _38  and  _39
REMARK   10  A    between atoms: _39  and  _40
REMARK   11  A    between atoms: _40  and  _41
REMARK   12  A    between atoms: _50  and  _52
REMARK   13  A    between atoms: _52  and  _53
REMARK   14  A    between atoms: _52  and  _55
REMARK   15  A    between atoms: _59  and  _60
REMARK   16  A    between atoms: _65  and  _67
REMARK   17  A    between atoms: _67  and  _68
REMARK   18  A    between atoms: _67  and  _70
REMARK   19  A    between atoms: _70  and  _71
REMARK   20  A    between atoms: _74  and  _76
REMARK   21  A    between atoms: _76  and  _77
REMARK   22  A    between atoms: _76  and  _79
REMARK   23  A    between atoms: _82  and  _84
REMARK   24  A    between atoms: _84  and  _85
REMARK   25  A    between atoms: _84  and  _87
REMARK   26  A    between atoms: _87  and  _88
REMARK   27  A    between atoms: _91  and  _93
REMARK   28  A    between atoms: _93  and  _94
REMARK   29  A    between atoms: _93  and  _96
REMARK   30  A    between atoms: _96  and  _97
REMARK   31  A    between atoms: _102  and  _103
REMARK   32  A    between atoms: _105  and  _107
REMARK   33  A    between atoms: _107  and  _108
REMARK   34  A    between atoms: _107  and  _110
REMARK   35  A    between atoms: _110  and  _111
REMARK   36  A    between atoms: _116  and  _117
REMARK   37  A    between atoms: _119  and  _121
REMARK   38  A    between atoms: _121  and  _122
REMARK   39  A    between atoms: _121  and  _128
REMARK   40  A    between atoms: _122  and  _123
REMARK   41  A    between atoms: _123  and  _124
REMARK   42  A    between atoms: _124  and  _125
REMARK   43  A    between atoms: _125  and  _126
REMARK   44  A    between atoms: _130  and  _131
REMARK   45  A    between atoms: _131  and  CO_480
REMARK   46  A    between atoms: _133  and  _135
REMARK   47  A    between atoms: _135  and  _136
REMARK   48  A    between atoms: _139  and  _141
REMARK   49  A    between atoms: _141  and  _142
REMARK   50  A    between atoms: _141  and  _144
REMARK   51  A    between atoms: _144  and  _145
REMARK   52  A    between atoms: _148  and  _150
REMARK   53  A    between atoms: _150  and  _151
REMARK   54  A    between atoms: _150  and  _153
REMARK   55  A    between atoms: _153  and  _154
REMARK   56  A    between atoms: _155  and  CO_480
REMARK   57  A    between atoms: _159  and  _161
REMARK   58  A    between atoms: _161  and  _162
REMARK   59  A    between atoms: _161  and  _164
REMARK   60  A    between atoms: _164  and  _165
REMARK   61  A    between atoms: _167  and  _169
REMARK   62  A    between atoms: _169  and  _170
REMARK   63  A    between atoms: _169  and  _172
REMARK   64  A    between atoms: _172  and  _173
REMARK   65  A    between atoms: _177  and  CO_480
REMARK   66  A    between atoms: _178  and  _180
REMARK   67  A    between atoms: _180  and  _181
REMARK   68  A    between atoms: _180  and  _183
REMARK   69  A    between atoms: _183  and  _184
REMARK   70  A    between atoms: _184  and  _185
REMARK   71  A    between atoms: _185  and  _186
REMARK   72  A    between atoms: _195  and  _197
REMARK   73  A    between atoms: _197  and  _198
REMARK   74  A    between atoms: _200  and  _202
REMARK   75  A    between atoms: _202  and  _203
REMARK   76  A    between atoms: _202  and  _205
REMARK   77  A    between atoms: _205  and  _206
REMARK   78  A    between atoms: _209  and  _211
REMARK   79  A    between atoms: _211  and  _212
REMARK   80  A    between atoms: _211  and  _214
REMARK   81  A    between atoms: _214  and  _215
REMARK   82  A    between atoms: _218  and  _220
REMARK   83  A    between atoms: _220  and  _221
REMARK   84  A    between atoms: _220  and  _223
REMARK   85  A    between atoms: _223  and  _224
REMARK   86  A    between atoms: _227  and  _229
REMARK   87  A    between atoms: _229  and  _230
REMARK   88  A    between atoms: _229  and  _232
REMARK   89  A    between atoms: _232  and  _233
REMARK   90  A    between atoms: _239  and  _241
REMARK   91  A    between atoms: _241  and  _242
REMARK   92  A    between atoms: _241  and  _244
REMARK   93  A    between atoms: _244  and  _245
REMARK   94  A    between atoms: _250  and  _252
REMARK   95  A    between atoms: _252  and  _253
REMARK   96  A    between atoms: _252  and  _255
REMARK   97  A    between atoms: _255  and  _256
REMARK   98  A    between atoms: _256  and  _258
REMARK   99  A    between atoms: _258  and  FE_479
REMARK  100  A    between atoms: _259  and  _261
REMARK  101  A    between atoms: _261  and  _262
REMARK  102  A    between atoms: _261  and  _264
REMARK  103  A    between atoms: _264  and  _265
REMARK  104  A    between atoms: _270  and  _271
REMARK  105  A    between atoms: _273  and  _275
REMARK  106  A    between atoms: _275  and  _276
REMARK  107  A    between atoms: _275  and  _278
REMARK  108  A    between atoms: _280  and  _282
REMARK  109  A    between atoms: _282  and  _283
REMARK  110  A    between atoms: _282  and  _285
REMARK  111  A    between atoms: _285  and  _286
REMARK  112  A    between atoms: _289  and  _291
REMARK  113  A    between atoms: _291  and  _292
REMARK  114  A    between atoms: _291  and  _294
REMARK  115  A    between atoms: _294  and  _295
REMARK  116  A    between atoms: _298  and  _300
REMARK  117  A    between atoms: _300  and  _301
REMARK  118  A    between atoms: _300  and  _303
REMARK  119  A    between atoms: _303  and  _304
REMARK  120  A    between atoms: _307  and  _309
REMARK  121  A    between atoms: _309  and  _310
REMARK  122  A    between atoms: _309  and  _312
REMARK  123  A    between atoms: _312  and  _313
REMARK  124  A    between atoms: _323  and  _325
REMARK  125  A    between atoms: _325  and  _326
REMARK  126  A    between atoms: _328  and  _330
REMARK  127  A    between atoms: _330  and  _331
REMARK  128  A    between atoms: _330  and  _333
REMARK  129  A    between atoms: _333  and  _334
REMARK  130  A    between atoms: _337  and  _339
REMARK  131  A    between atoms: _339  and  _340
REMARK  132  A    between atoms: _343  and  _345
REMARK  133  A    between atoms: _345  and  _346
REMARK  134  A    between atoms: _345  and  _348
REMARK  135  A    between atoms: _348  and  _349
REMARK  136  A    between atoms: _349  and  _350
REMARK  137  A    between atoms: _350  and  _351
REMARK  138  A    between atoms: _351  and  _352
REMARK  139  A    between atoms: _357  and  _358
REMARK  140  A    between atoms: _363  and  _365
REMARK  141  A    between atoms: _365  and  _366
REMARK  142  A    between atoms: _365  and  _368
REMARK  143  A    between atoms: _368  and  _369
REMARK  144  A    between atoms: _369  and  _370
REMARK  145  A    between atoms: _373  and  _375
REMARK  146  A    between atoms: _375  and  _376
REMARK  147  A    between atoms: _375  and  _378
REMARK  148  A    between atoms: _378  and  _379
REMARK  149  A    between atoms: _384  and  _385
REMARK  150  A    between atoms: _387  and  _389
REMARK  151  A    between atoms: _389  and  _390
REMARK  152  A    between atoms: _389  and  _392
REMARK  153  A    between atoms: _392  and  _393
REMARK  154  A    between atoms: _393  and  _394
REMARK  155  A    between atoms: _394  and  _395
REMARK  156  A    between atoms: _395  and  _396
REMARK  157  A    between atoms: _401  and  _402
REMARK  158  A    between atoms: _407  and  _409
REMARK  159  A    between atoms: _409  and  _410
REMARK  160  A    between atoms: _409  and  _412
REMARK  161  A    between atoms: _412  and  _413
REMARK  162  A    between atoms: _413  and  _414
REMARK  163  A    between atoms: _414  and  _415
REMARK  164  A    between atoms: _415  and  _416
REMARK  165  A    between atoms: _420  and  _422
REMARK  166  A    between atoms: _422  and  _423
REMARK  167  A    between atoms: _422  and  _425
REMARK  168  A    between atoms: _425  and  _426
REMARK  169  A    between atoms: _429  and  _431
REMARK  170  A    between atoms: _431  and  _432
REMARK  171  A    between atoms: _436  and  _437
REMARK  172  A    between atoms: _442  and  _444
REMARK  173  A    between atoms: _444  and  _445
REMARK  174  A    between atoms: _444  and  _447
REMARK  175  A    between atoms: _447  and  _448
REMARK  176  A    between atoms: _458  and  _460
REMARK  177  A    between atoms: _460  and  _461
REMARK  178  A    between atoms: _460  and  _463
REMARK  179  A    between atoms: _463  and  _464
REMARK  180  A    between atoms: _470  and  _472
REMARK  181  A    between atoms: _472  and  _473
REMARK  182  A    between atoms: _472  and  _475
REMARK  183  A    between atoms: _475  and  _476
REMARK  184  A    between atoms: FE_479  and  _486
REMARK  185  A    between atoms: CO_480  and  _486
REMARK                            x       y       z     vdW  Elec       q    Type
REMARK                         _______ _______ _______ _____ _____    ______ ____
ROOT
ATOM      1  CB  PHE A   1      17.870 -17.487  -3.049  0.00  0.00    +0.051 C 
ENDROOT
BRANCH   1   2
ATOM      2  CG  PHE A   1      17.842 -15.984  -3.073  0.00  0.00    -0.020 A 
ATOM      3  CD2 PHE A   1      19.007 -15.255  -2.861  0.00  0.00    -0.004 A 
ATOM      4  CE2 PHE A   1      18.995 -13.863  -2.889  0.00  0.00    -0.000 A 
ATOM      5  CZ  PHE A   1      17.806 -13.186  -3.135  0.00  0.00    -0.000 A 
ATOM      6  CE1 PHE A   1      16.634 -13.903  -3.351  0.00  0.00    -0.000 A 
ATOM      7  CD1 PHE A   1      16.657 -15.296  -3.324  0.00  0.00    -0.004 A 
ENDBRANCH   1   2
BRANCH   1   8
ATOM      8  CA  PHE A   1      17.204 -18.103  -1.820  0.00  0.00    +0.137 C 
BRANCH   8   9
ATOM      9  N   PHE A   1      17.902 -17.687  -0.596  0.00  0.00    -0.239 NA
ATOM     10  H   PHE A   1      18.702 -17.028  -0.682  0.00  0.00    +0.142 HD
ENDBRANCH   8   9
BRANCH   8  11
ATOM     11  C   PHE A   1      17.071 -19.618  -2.008  0.00  0.00    +0.224 C 
ATOM     12  O   PHE A   1      16.089 -20.085  -2.586  0.00  0.00    -0.287 OA
ENDBRANCH   8  11
ENDBRANCH   1   8
TORSDOF 4
REMARK  Name = ../refined-set-2016/2vc7/2vc7_pocket.pdb
REMARK  185 active torsions:
REMARK  status: ('A' for Active; 'I' for Inactive)
REMARK    1  A    between atoms: _1  and  _3
REMARK    2  A    between atoms: _14  and  _17
REMARK    3  A    between atoms: _17  and  _18
REMARK    4  A    between atoms: _18  and  _19
REMARK    5  A    between atoms: _24  and  _25
REMARK    6  A    between atoms: _33  and  _35
REMARK    7  A    between atoms: _35  and  _36
REMARK    8  A    between atoms: _35  and  _38
REMARK    9  A    between atoms: _38  and  _39
REMARK   10  A    between atoms: _39  and  _40
REMARK   11  A    between atoms: _40  and  _41
REMARK   12  A    between atoms: _50  and  _52
REMARK   13  A    between atoms: _52  and  _53
REMARK   14  A    between atoms: _52  and  _55
REMARK   15  A    between atoms: _59  and  _60
REMARK   16  A    between atoms: _65  and  _67
REMARK   17  A    between atoms: _67  and  _68
REMARK   18  A    between atoms: _67  and  _70
REMARK   19  A    between atoms: _70  and  _71
REMARK   20  A    between atoms: _74  and  _76
REMARK   21  A    between atoms: _76  and  _77
REMARK   22  A    between atoms: _76  and  _79
REMARK   23  A    between atoms: _82  and  _84
REMARK   24  A    between atoms: _84  and  _85
REMARK   25  A    between atoms: _84  and  _87
REMARK   26  A    between atoms: _87  and  _88
REMARK   27  A    between atoms: _91  and  _93
REMARK   28  A    between atoms: _93  and  _94
REMARK   29  A    between atoms: _93  and  _96
REMARK   30  A    between atoms: _96  and  _97
REMARK   31  A    between atoms: _102  and  _103
REMARK   32  A    between atoms: _105  and  _107
REMARK   33  A    between atoms: _107  and  _108
REMARK   34  A    between atoms: _107  and  _110
REMARK   35  A    between atoms: _110  and  _111
REMARK   36  A    between atoms: _116  and  _117
REMARK   37  A    between atoms: _119  and  _121
REMARK   38  A    between atoms: _121  and  _122
REMARK   39  A    between atoms: _121  and  _128
REMARK   40  A    between atoms: _122  and  _123
REMARK   41  A    between atoms: _123  and  _124
REMARK   42  A    between atoms: _124  and  _125
REMARK   43  A    between atoms: _125  and  _126
REMARK   44  A    between atoms: _130  and  _131
REMARK   45  A    between atoms: _131  and  CO_480
REMARK   46  A    between atoms: _133  and  _135
REMARK   47  A    between atoms: _135  and  _136
REMARK   48  A    between atoms: _139  and  _141
REMARK   49  A    between atoms: _141  and  _142
REMARK   50  A    between atoms: _141  and  _144
REMARK   51  A    between atoms: _144  and  _145
REMARK   52  A    between atoms: _148  and  _150
REMARK   53  A    between atoms: _150  and  _151
REMARK   54  A    between atoms: _150  and  _153
REMARK   55  A    between atoms: _153  and  _154
REMARK   56  A    between atoms: _155  and  CO_480
REMARK   57  A    between atoms: _159  and  _161
REMARK   58  A    between atoms: _161  and  _162
REMARK   59  A    between atoms: _161  and  _164
REMARK   60  A    between atoms: _164  and  _165
REMARK   61  A    between atoms: _167  and  _169
REMARK   62  A    between atoms: _169  and  _170
REMARK   63  A    between atoms: _169  and  _172
REMARK   64  A    between atoms: _172  and  _173
REMARK   65  A    between atoms: _177  and  CO_480
REMARK   66  A    between atoms: _178  and  _180
REMARK   67  A    between atoms: _180  and  _181
REMARK   68  A    between atoms: _180  and  _183
REMARK   69  A    between atoms: _183  and  _184
REMARK   70  A    between atoms: _184  and  _185
REMARK   71  A    between atoms: _185  and  _186
REMARK   72  A    between atoms: _195  and  _197
REMARK   73  A    between atoms: _197  and  _198
REMARK   74  A    between atoms: _200  and  _202
REMARK   75  A    between atoms: _202  and  _203
REMARK   76  A    between atoms: _202  and  _205
REMARK   77  A    between atoms: _205  and  _206
REMARK   78  A    between atoms: _209  and  _211
REMARK   79  A    between atoms: _211  and  _212
REMARK   80  A    between atoms: _211  and  _214
REMARK   81  A    between atoms: _214  and  _215
REMARK   82  A    between atoms: _218  and  _220
REMARK   83  A    between atoms: _220  and  _221
REMARK   84  A    between atoms: _220  and  _223
REMARK   85  A    between atoms: _223  and  _224
REMARK   86  A    between atoms: _227  and  _229
REMARK   87  A    between atoms: _229  and  _230
REMARK   88  A    between atoms: _229  and  _232
REMARK   89  A    between atoms: _232  and  _233
REMARK   90  A    between atoms: _239  and  _241
REMARK   91  A    between atoms: _241  and  _242
REMARK   92  A    between atoms: _241  and  _244
REMARK   93  A    between atoms: _244  and  _245
REMARK   94  A    between atoms: _250  and  _252
REMARK   95  A    between atoms: _252  and  _253
REMARK   96  A    between atoms: _252  and  _255
REMARK   97  A    between atoms: _255  and  _256
REMARK   98  A    between atoms: _256  and  _258
REMARK   99  A    between atoms: _258  and  FE_479
REMARK  100  A    between atoms: _259  and  _261
REMARK  101  A    between atoms: _261  and  _262
REMARK  102  A    between atoms: _261  and  _264
REMARK  103  A    between atoms: _264  and  _265
REMARK  104  A    between atoms: _270  and  _271
REMARK  105  A    between atoms: _273  and  _275
REMARK  106  A    between atoms: _275  and  _276
REMARK  107  A    between atoms: _275  and  _278
REMARK  108  A    between atoms: _280  and  _282
REMARK  109  A    between atoms: _282  and  _283
REMARK  110  A    between atoms: _282  and  _285
REMARK  111  A    between atoms: _285  and  _286
REMARK  112  A    between atoms: _289  and  _291
REMARK  113  A    between atoms: _291  and  _292
REMARK  114  A    between atoms: _291  and  _294
REMARK  115  A    between atoms: _294  and  _295
REMARK  116  A    between atoms: _298  and  _300
REMARK  117  A    between atoms: _300  and  _301
REMARK  118  A    between atoms: _300  and  _303
REMARK  119  A    between atoms: _303  and  _304
REMARK  120  A    between atoms: _307  and  _309
REMARK  121  A    between atoms: _309  and  _310
REMARK  122  A    between atoms: _309  and  _312
REMARK  123  A    between atoms: _312  and  _313
REMARK  124  A    between atoms: _323  and  _325
REMARK  125  A    between atoms: _325  and  _326
REMARK  126  A    between atoms: _328  and  _330
REMARK  127  A    between atoms: _330  and  _331
REMARK  128  A    between atoms: _330  and  _333
REMARK  129  A    between atoms: _333  and  _334
REMARK  130  A    between atoms: _337  and  _339
REMARK  131  A    between atoms: _339  and  _340
REMARK  132  A    between atoms: _343  and  _345
REMARK  133  A    between atoms: _345  and  _346
REMARK  134  A    between atoms: _345  and  _348
REMARK  135  A    between atoms: _348  and  _349
REMARK  136  A    between atoms: _349  and  _350
REMARK  137  A    between atoms: _350  and  _351
REMARK  138  A    between atoms: _351  and  _352
REMARK  139  A    between atoms: _357  and  _358
REMARK  140  A    between atoms: _363  and  _365
REMARK  141  A    between atoms: _365  and  _366
REMARK  142  A    between atoms: _365  and  _368
REMARK  143  A    between atoms: _368  and  _369
REMARK  144  A    between atoms: _369  and  _370
REMARK  145  A    between atoms: _373  and  _375
REMARK  146  A    between atoms: _375  and  _376
REMARK  147  A    between atoms: _375  and  _378
REMARK  148  A    between atoms: _378  and  _379
REMARK  149  A    between atoms: _384  and  _385
REMARK  150  A    between atoms: _387  and  _389
REMARK  151  A    between atoms: _389  and  _390
REMARK  152  A    between atoms: _389  and  _392
REMARK  153  A    between atoms: _392  and  _393
REMARK  154  A    between atoms: _393  and  _394
REMARK  155  A    between atoms: _394  and  _395
REMARK  156  A    between atoms: _395  and  _396
REMARK  157  A    between atoms: _401  and  _402
REMARK  158  A    between atoms: _407  and  _409
REMARK  159  A    between atoms: _409  and  _410
REMARK  160  A    between atoms: _409  and  _412
REMARK  161  A    between atoms: _412  and  _413
REMARK  162  A    between atoms: _413  and  _414
REMARK  163  A    between atoms: _414  and  _415
REMARK  164  A    between atoms: _415  and  _416
REMARK  165  A    between atoms: _420  and  _422
REMARK  166  A    between atoms: _422  and  _423
REMARK  167  A    between atoms: _422  and  _425
REMARK  168  A    between atoms: _425  and  _426
REMARK  169  A    between atoms: _429  and  _431
REMARK  170  A    between atoms: _431  and  _432
REMARK  171  A    between atoms: _436  and  _437
REMARK  172  A    between atoms: _442  and  _444
REMARK  173  A    between atoms: _444  and  _445
REMARK  174  A    between atoms: _444  and  _447
REMARK  175  A    between atoms: _447  and  _448
REMARK  176  A    between atoms: _458  and  _460
REMARK  177  A    between atoms: _460  and  _461
REMARK  178  A    between atoms: _460  and  _463
REMARK  179  A    between atoms: _463  and  _464
REMARK  180  A    between atoms: _470  and  _472
REMARK  181  A    between atoms: _472  and  _473
REMARK  182  A    between atoms: _472  and  _475
REMARK  183  A    between atoms: _475  and  _476
REMARK  184  A    between atoms: FE_479  and  _486
REMARK  185  A    between atoms: CO_480  and  _486
REMARK                            x       y       z     vdW  Elec       q    Type
REMARK                         _______ _______ _______ _____ _____    ______ ____
ROOT
ATOM      1  CA  LEU A   1      12.543 -20.865  -2.083  0.00  0.00    +0.133 C 
ENDROOT
BRANCH   1   2
ATOM      2  N   LEU A   1      13.711 -21.164  -1.251  0.00  0.00    -0.239 NA
ATOM      3  H   LEU A   1      14.648 -20.820  -1.543  0.00  0.00    +0.142 HD
ENDBRANCH   1   2
BRANCH   1   4
ATOM      4  C   LEU A   1      11.860 -22.162  -2.492  0.00  0.00    +0.224 C 
ATOM      5  O   LEU A   1      12.492 -23.043  -3.072  0.00  0.00    -0.287 OA
ENDBRANCH   1   4
BRANCH   1   6
ATOM      6  CB  LEU A   1      12.922 -20.042  -3.319  0.00  0.00    +0.025 C 
BRANCH   6   7
ATOM      7  CG  LEU A   1      12.971 -18.517  -3.166  0.00  0.00    +0.002 C 
ATOM      8  CD2 LEU A   1      11.584 -17.931  -2.897  0.00  0.00    +0.000 C 
ATOM      9  CD1 LEU A   1      13.586 -17.881  -4.400  0.00  0.00    +0.000 C 
ENDBRANCH   6   7
ENDBRANCH   1   6
TORSDOF 4
REMARK  Name = ../refined-set-2016/2vc7/2vc7_pocket.pdb
REMARK  185 active torsions:
REMARK  status: ('A' for Active; 'I' for Inactive)
REMARK    1  A    between atoms: _1  and  _3
REMARK    2  A    between atoms: _14  and  _17
REMARK    3  A    between atoms: _17  and  _18
REMARK    4  A    between atoms: _18  and  _19
REMARK    5  A    between atoms: _24  and  _25
REMARK    6  A    between atoms: _33  and  _35
REMARK    7  A    between atoms: _35  and  _36
REMARK    8  A    between atoms: _35  and  _38
REMARK    9  A    between atoms: _38  and  _39
REMARK   10  A    between atoms: _39  and  _40
REMARK   11  A    between atoms: _40  and  _41
REMARK   12  A    between atoms: _50  and  _52
REMARK   13  A    between atoms: _52  and  _53
REMARK   14  A    between atoms: _52  and  _55
REMARK   15  A    between atoms: _59  and  _60
REMARK   16  A    between atoms: _65  and  _67
REMARK   17  A    between atoms: _67  and  _68
REMARK   18  A    between atoms: _67  and  _70
REMARK   19  A    between atoms: _70  and  _71
REMARK   20  A    between atoms: _74  and  _76
REMARK   21  A    between atoms: _76  and  _77
REMARK   22  A    between atoms: _76  and  _79
REMARK   23  A    between atoms: _82  and  _84
REMARK   24  A    between atoms: _84  and  _85
REMARK   25  A    between atoms: _84  and  _87
REMARK   26  A    between atoms: _87  and  _88
REMARK   27  A    between atoms: _91  and  _93
REMARK   28  A    between atoms: _93  and  _94
REMARK   29  A    between atoms: _93  and  _96
REMARK   30  A    between atoms: _96  and  _97
REMARK   31  A    between atoms: _102  and  _103
REMARK   32  A    between atoms: _105  and  _107
REMARK   33  A    between atoms: _107  and  _108
REMARK   34  A    between atoms: _107  and  _110
REMARK   35  A    between atoms: _110  and  _111
REMARK   36  A    between atoms: _116  and  _117
REMARK   37  A    between atoms: _119  and  _121
REMARK   38  A    between atoms: _121  and  _122
REMARK   39  A    between atoms: _121  and  _128
REMARK   40  A    between atoms: _122  and  _123
REMARK   41  A    between atoms: _123  and  _124
REMARK   42  A    between atoms: _124  and  _125
REMARK   43  A    between atoms: _125  and  _126
REMARK   44  A    between atoms: _130  and  _131
REMARK   45  A    between atoms: _131  and  CO_480
REMARK   46  A    between atoms: _133  and  _135
REMARK   47  A    between atoms: _135  and  _136
REMARK   48  A    between atoms: _139  and  _141
REMARK   49  A    between atoms: _141  and  _142
REMARK   50  A    between atoms: _141  and  _144
REMARK   51  A    between atoms: _144  and  _145
REMARK   52  A    between atoms: _148  and  _150
REMARK   53  A    between atoms: _150  and  _151
REMARK   54  A    between atoms: _150  and  _153
REMARK   55  A    between atoms: _153  and  _154
REMARK   56  A    between atoms: _155  and  CO_480
REMARK   57  A    between atoms: _159  and  _161
REMARK   58  A    between atoms: _161  and  _162
REMARK   59  A    between atoms: _161  and  _164
REMARK   60  A    between atoms: _164  and  _165
REMARK   61  A    between atoms: _167  and  _169
REMARK   62  A    between atoms: _169  and  _170
REMARK   63  A    between atoms: _169  and  _172
REMARK   64  A    between atoms: _172  and  _173
REMARK   65  A    between atoms: _177  and  CO_480
REMARK   66  A    between atoms: _178  and  _180
REMARK   67  A    between atoms: _180  and  _181
REMARK   68  A    between atoms: _180  and  _183
REMARK   69  A    between atoms: _183  and  _184
REMARK   70  A    between atoms: _184  and  _185
REMARK   71  A    between atoms: _185  and  _186
REMARK   72  A    between atoms: _195  and  _197
REMARK   73  A    between atoms: _197  and  _198
REMARK   74  A    between atoms: _200  and  _202
REMARK   75  A    between atoms: _202  and  _203
REMARK   76  A    between atoms: _202  and  _205
REMARK   77  A    between atoms: _205  and  _206
REMARK   78  A    between atoms: _209  and  _211
REMARK   79  A    between atoms: _211  and  _212
REMARK   80  A    between atoms: _211  and  _214
REMARK   81  A    between atoms: _214  and  _215
REMARK   82  A    between atoms: _218  and  _220
REMARK   83  A    between atoms: _220  and  _221
REMARK   84  A    between atoms: _220  and  _223
REMARK   85  A    between atoms: _223  and  _224
REMARK   86  A    between atoms: _227  and  _229
REMARK   87  A    between atoms: _229  and  _230
REMARK   88  A    between atoms: _229  and  _232
REMARK   89  A    between atoms: _232  and  _233
REMARK   90  A    between atoms: _239  and  _241
REMARK   91  A    between atoms: _241  and  _242
REMARK   92  A    between atoms: _241  and  _244
REMARK   93  A    between atoms: _244  and  _245
REMARK   94  A    between atoms: _250  and  _252
REMARK   95  A    between atoms: _252  and  _253
REMARK   96  A    between atoms: _252  and  _255
REMARK   97  A    between atoms: _255  and  _256
REMARK   98  A    between atoms: _256  and  _258
REMARK   99  A    between atoms: _258  and  FE_479
REMARK  100  A    between atoms: _259  and  _261
REMARK  101  A    between atoms: _261  and  _262
REMARK  102  A    between atoms: _261  and  _264
REMARK  103  A    between atoms: _264  and  _265
REMARK  104  A    between atoms: _270  and  _271
REMARK  105  A    between atoms: _273  and  _275
REMARK  106  A    between atoms: _275  and  _276
REMARK  107  A    between atoms: _275  and  _278
REMARK  108  A    between atoms: _280  and  _282
REMARK  109  A    between atoms: _282  and  _283
REMARK  110  A    between atoms: _282  and  _285
REMARK  111  A    between atoms: _285  and  _286
REMARK  112  A    between atoms: _289  and  _291
REMARK  113  A    between atoms: _291  and  _292
REMARK  114  A    between atoms: _291  and  _294
REMARK  115  A    between atoms: _294  and  _295
REMARK  116  A    between atoms: _298  and  _300
REMARK  117  A    between atoms: _300  and  _301
REMARK  118  A    between atoms: _300  and  _303
REMARK  119  A    between atoms: _303  and  _304
REMARK  120  A    between atoms: _307  and  _309
REMARK  121  A    between atoms: _309  and  _310
REMARK  122  A    between atoms: _309  and  _312
REMARK  123  A    between atoms: _312  and  _313
REMARK  124  A    between atoms: _323  and  _325
REMARK  125  A    between atoms: _325  and  _326
REMARK  126  A    between atoms: _328  and  _330
REMARK  127  A    between atoms: _330  and  _331
REMARK  128  A    between atoms: _330  and  _333
REMARK  129  A    between atoms: _333  and  _334
REMARK  130  A    between atoms: _337  and  _339
REMARK  131  A    between atoms: _339  and  _340
REMARK  132  A    between atoms: _343  and  _345
REMARK  133  A    between atoms: _345  and  _346
REMARK  134  A    between atoms: _345  and  _348
REMARK  135  A    between atoms: _348  and  _349
REMARK  136  A    between atoms: _349  and  _350
REMARK  137  A    between atoms: _350  and  _351
REMARK  138  A    between atoms: _351  and  _352
REMARK  139  A    between atoms: _357  and  _358
REMARK  140  A    between atoms: _363  and  _365
REMARK  141  A    between atoms: _365  and  _366
REMARK  142  A    between atoms: _365  and  _368
REMARK  143  A    between atoms: _368  and  _369
REMARK  144  A    between atoms: _369  and  _370
REMARK  145  A    between atoms: _373  and  _375
REMARK  146  A    between atoms: _375  and  _376
REMARK  147  A    between atoms: _375  and  _378
REMARK  148  A    between atoms: _378  and  _379
REMARK  149  A    between atoms: _384  and  _385
REMARK  150  A    between atoms: _387  and  _389
REMARK  151  A    between atoms: _389  and  _390
REMARK  152  A    between atoms: _389  and  _392
REMARK  153  A    between atoms: _392  and  _393
REMARK  154  A    between atoms: _393  and  _394
REMARK  155  A    between atoms: _394  and  _395
REMARK  156  A    between atoms: _395  and  _396
REMARK  157  A    between atoms: _401  and  _402
REMARK  158  A    between atoms: _407  and  _409
REMARK  159  A    between atoms: _409  and  _410
REMARK  160  A    between atoms: _409  and  _412
REMARK  161  A    between atoms: _412  and  _413
REMARK  162  A    between atoms: _413  and  _414
REMARK  163  A    between atoms: _414  and  _415
REMARK  164  A    between atoms: _415  and  _416
REMARK  165  A    between atoms: _420  and  _422
REMARK  166  A    between atoms: _422  and  _423
REMARK  167  A    between atoms: _422  and  _425
REMARK  168  A    between atoms: _425  and  _426
REMARK  169  A    between atoms: _429  and  _431
REMARK  170  A    between atoms: _431  and  _432
REMARK  171  A    between atoms: _436  and  _437
REMARK  172  A    between atoms: _442  and  _444
REMARK  173  A    between atoms: _444  and  _445
REMARK  174  A    between atoms: _444  and  _447
REMARK  175  A    between atoms: _447  and  _448
REMARK  176  A    between atoms: _458  and  _460
REMARK  177  A    between atoms: _460  and  _461
REMARK  178  A    between atoms: _460  and  _463
REMARK  179  A    between atoms: _463  and  _464
REMARK  180  A    between atoms: _470  and  _472
REMARK  181  A    between atoms: _472  and  _473
REMARK  182  A    between atoms: _472  and  _475
REMARK  183  A    between atoms: _475  and  _476
REMARK  184  A    between atoms: FE_479  and  _486
REMARK  185  A    between atoms: CO_480  and  _486
REMARK                            x       y       z     vdW  Elec       q    Type
REMARK                         _______ _______ _______ _____ _____    ______ ____
ROOT
ATOM      1  O   HOH     1      19.625 -25.879 -14.404  0.00  0.00    +0.000 OA
ENDROOT
TORSDOF 0
REMARK  Name = ../refined-set-2016/2vc7/2vc7_pocket.pdb
REMARK  185 active torsions:
REMARK  status: ('A' for Active; 'I' for Inactive)
REMARK    1  A    between atoms: _1  and  _3
REMARK    2  A    between atoms: _14  and  _17
REMARK    3  A    between atoms: _17  and  _18
REMARK    4  A    between atoms: _18  and  _19
REMARK    5  A    between atoms: _24  and  _25
REMARK    6  A    between atoms: _33  and  _35
REMARK    7  A    between atoms: _35  and  _36
REMARK    8  A    between atoms: _35  and  _38
REMARK    9  A    between atoms: _38  and  _39
REMARK   10  A    between atoms: _39  and  _40
REMARK   11  A    between atoms: _40  and  _41
REMARK   12  A    between atoms: _50  and  _52
REMARK   13  A    between atoms: _52  and  _53
REMARK   14  A    between atoms: _52  and  _55
REMARK   15  A    between atoms: _59  and  _60
REMARK   16  A    between atoms: _65  and  _67
REMARK   17  A    between atoms: _67  and  _68
REMARK   18  A    between atoms: _67  and  _70
REMARK   19  A    between atoms: _70  and  _71
REMARK   20  A    between atoms: _74  and  _76
REMARK   21  A    between atoms: _76  and  _77
REMARK   22  A    between atoms: _76  and  _79
REMARK   23  A    between atoms: _82  and  _84
REMARK   24  A    between atoms: _84  and  _85
REMARK   25  A    between atoms: _84  and  _87
REMARK   26  A    between atoms: _87  and  _88
REMARK   27  A    between atoms: _91  and  _93
REMARK   28  A    between atoms: _93  and  _94
REMARK   29  A    between atoms: _93  and  _96
REMARK   30  A    between atoms: _96  and  _97
REMARK   31  A    between atoms: _102  and  _103
REMARK   32  A    between atoms: _105  and  _107
REMARK   33  A    between atoms: _107  and  _108
REMARK   34  A    between atoms: _107  and  _110
REMARK   35  A    between atoms: _110  and  _111
REMARK   36  A    between atoms: _116  and  _117
REMARK   37  A    between atoms: _119  and  _121
REMARK   38  A    between atoms: _121  and  _122
REMARK   39  A    between atoms: _121  and  _128
REMARK   40  A    between atoms: _122  and  _123
REMARK   41  A    between atoms: _123  and  _124
REMARK   42  A    between atoms: _124  and  _125
REMARK   43  A    between atoms: _125  and  _126
REMARK   44  A    between atoms: _130  and  _131
REMARK   45  A    between atoms: _131  and  CO_480
REMARK   46  A    between atoms: _133  and  _135
REMARK   47  A    between atoms: _135  and  _136
REMARK   48  A    between atoms: _139  and  _141
REMARK   49  A    between atoms: _141  and  _142
REMARK   50  A    between atoms: _141  and  _144
REMARK   51  A    between atoms: _144  and  _145
REMARK   52  A    between atoms: _148  and  _150
REMARK   53  A    between atoms: _150  and  _151
REMARK   54  A    between atoms: _150  and  _153
REMARK   55  A    between atoms: _153  and  _154
REMARK   56  A    between atoms: _155  and  CO_480
REMARK   57  A    between atoms: _159  and  _161
REMARK   58  A    between atoms: _161  and  _162
REMARK   59  A    between atoms: _161  and  _164
REMARK   60  A    between atoms: _164  and  _165
REMARK   61  A    between atoms: _167  and  _169
REMARK   62  A    between atoms: _169  and  _170
REMARK   63  A    between atoms: _169  and  _172
REMARK   64  A    between atoms: _172  and  _173
REMARK   65  A    between atoms: _177  and  CO_480
REMARK   66  A    between atoms: _178  and  _180
REMARK   67  A    between atoms: _180  and  _181
REMARK   68  A    between atoms: _180  and  _183
REMARK   69  A    between atoms: _183  and  _184
REMARK   70  A    between atoms: _184  and  _185
REMARK   71  A    between atoms: _185  and  _186
REMARK   72  A    between atoms: _195  and  _197
REMARK   73  A    between atoms: _197  and  _198
REMARK   74  A    between atoms: _200  and  _202
REMARK   75  A    between atoms: _202  and  _203
REMARK   76  A    between atoms: _202  and  _205
REMARK   77  A    between atoms: _205  and  _206
REMARK   78  A    between atoms: _209  and  _211
REMARK   79  A    between atoms: _211  and  _212
REMARK   80  A    between atoms: _211  and  _214
REMARK   81  A    between atoms: _214  and  _215
REMARK   82  A    between atoms: _218  and  _220
REMARK   83  A    between atoms: _220  and  _221
REMARK   84  A    between atoms: _220  and  _223
REMARK   85  A    between atoms: _223  and  _224
REMARK   86  A    between atoms: _227  and  _229
REMARK   87  A    between atoms: _229  and  _230
REMARK   88  A    between atoms: _229  and  _232
REMARK   89  A    between atoms: _232  and  _233
REMARK   90  A    between atoms: _239  and  _241
REMARK   91  A    between atoms: _241  and  _242
REMARK   92  A    between atoms: _241  and  _244
REMARK   93  A    between atoms: _244  and  _245
REMARK   94  A    between atoms: _250  and  _252
REMARK   95  A    between atoms: _252  and  _253
REMARK   96  A    between atoms: _252  and  _255
REMARK   97  A    between atoms: _255  and  _256
REMARK   98  A    between atoms: _256  and  _258
REMARK   99  A    between atoms: _258  and  FE_479
REMARK  100  A    between atoms: _259  and  _261
REMARK  101  A    between atoms: _261  and  _262
REMARK  102  A    between atoms: _261  and  _264
REMARK  103  A    between atoms: _264  and  _265
REMARK  104  A    between atoms: _270  and  _271
REMARK  105  A    between atoms: _273  and  _275
REMARK  106  A    between atoms: _275  and  _276
REMARK  107  A    between atoms: _275  and  _278
REMARK  108  A    between atoms: _280  and  _282
REMARK  109  A    between atoms: _282  and  _283
REMARK  110  A    between atoms: _282  and  _285
REMARK  111  A    between atoms: _285  and  _286
REMARK  112  A    between atoms: _289  and  _291
REMARK  113  A    between atoms: _291  and  _292
REMARK  114  A    between atoms: _291  and  _294
REMARK  115  A    between atoms: _294  and  _295
REMARK  116  A    between atoms: _298  and  _300
REMARK  117  A    between atoms: _300  and  _301
REMARK  118  A    between atoms: _300  and  _303
REMARK  119  A    between atoms: _303  and  _304
REMARK  120  A    between atoms: _307  and  _309
REMARK  121  A    between atoms: _309  and  _310
REMARK  122  A    between atoms: _309  and  _312
REMARK  123  A    between atoms: _312  and  _313
REMARK  124  A    between atoms: _323  and  _325
REMARK  125  A    between atoms: _325  and  _326
REMARK  126  A    between atoms: _328  and  _330
REMARK  127  A    between atoms: _330  and  _331
REMARK  128  A    between atoms: _330  and  _333
REMARK  129  A    between atoms: _333  and  _334
REMARK  130  A    between atoms: _337  and  _339
REMARK  131  A    between atoms: _339  and  _340
REMARK  132  A    between atoms: _343  and  _345
REMARK  133  A    between atoms: _345  and  _346
REMARK  134  A    between atoms: _345  and  _348
REMARK  135  A    between atoms: _348  and  _349
REMARK  136  A    between atoms: _349  and  _350
REMARK  137  A    between atoms: _350  and  _351
REMARK  138  A    between atoms: _351  and  _352
REMARK  139  A    between atoms: _357  and  _358
REMARK  140  A    between atoms: _363  and  _365
REMARK  141  A    between atoms: _365  and  _366
REMARK  142  A    between atoms: _365  and  _368
REMARK  143  A    between atoms: _368  and  _369
REMARK  144  A    between atoms: _369  and  _370
REMARK  145  A    between atoms: _373  and  _375
REMARK  146  A    between atoms: _375  and  _376
REMARK  147  A    between atoms: _375  and  _378
REMARK  148  A    between atoms: _378  and  _379
REMARK  149  A    between atoms: _384  and  _385
REMARK  150  A    between atoms: _387  and  _389
REMARK  151  A    between atoms: _389  and  _390
REMARK  152  A    between atoms: _389  and  _392
REMARK  153  A    between atoms: _392  and  _393
REMARK  154  A    between atoms: _393  and  _394
REMARK  155  A    between atoms: _394  and  _395
REMARK  156  A    between atoms: _395  and  _396
REMARK  157  A    between atoms: _401  and  _402
REMARK  158  A    between atoms: _407  and  _409
REMARK  159  A    between atoms: _409  and  _410
REMARK  160  A    between atoms: _409  and  _412
REMARK  161  A    between atoms: _412  and  _413
REMARK  162  A    between atoms: _413  and  _414
REMARK  163  A    between atoms: _414  and  _415
REMARK  164  A    between atoms: _415  and  _416
REMARK  165  A    between atoms: _420  and  _422
REMARK  166  A    between atoms: _422  and  _423
REMARK  167  A    between atoms: _422  and  _425
REMARK  168  A    between atoms: _425  and  _426
REMARK  169  A    between atoms: _429  and  _431
REMARK  170  A    between atoms: _431  and  _432
REMARK  171  A    between atoms: _436  and  _437
REMARK  172  A    between atoms: _442  and  _444
REMARK  173  A    between atoms: _444  and  _445
REMARK  174  A    between atoms: _444  and  _447
REMARK  175  A    between atoms: _447  and  _448
REMARK  176  A    between atoms: _458  and  _460
REMARK  177  A    between atoms: _460  and  _461
REMARK  178  A    between atoms: _460  and  _463
REMARK  179  A    between atoms: _463  and  _464
REMARK  180  A    between atoms: _470  and  _472
REMARK  181  A    between atoms: _472  and  _473
REMARK  182  A    between atoms: _472  and  _475
REMARK  183  A    between atoms: _475  and  _476
REMARK  184  A    between atoms: FE_479  and  _486
REMARK  185  A    between atoms: CO_480  and  _486
REMARK                            x       y       z     vdW  Elec       q    Type
REMARK                         _______ _______ _______ _____ _____    ______ ____
ROOT
ATOM      1  O   HOH     1      21.878 -28.362 -13.481  0.00  0.00    +0.000 OA
ENDROOT
TORSDOF 0
REMARK  Name = ../refined-set-2016/2vc7/2vc7_pocket.pdb
REMARK  185 active torsions:
REMARK  status: ('A' for Active; 'I' for Inactive)
REMARK    1  A    between atoms: _1  and  _3
REMARK    2  A    between atoms: _14  and  _17
REMARK    3  A    between atoms: _17  and  _18
REMARK    4  A    between atoms: _18  and  _19
REMARK    5  A    between atoms: _24  and  _25
REMARK    6  A    between atoms: _33  and  _35
REMARK    7  A    between atoms: _35  and  _36
REMARK    8  A    between atoms: _35  and  _38
REMARK    9  A    between atoms: _38  and  _39
REMARK   10  A    between atoms: _39  and  _40
REMARK   11  A    between atoms: _40  and  _41
REMARK   12  A    between atoms: _50  and  _52
REMARK   13  A    between atoms: _52  and  _53
REMARK   14  A    between atoms: _52  and  _55
REMARK   15  A    between atoms: _59  and  _60
REMARK   16  A    between atoms: _65  and  _67
REMARK   17  A    between atoms: _67  and  _68
REMARK   18  A    between atoms: _67  and  _70
REMARK   19  A    between atoms: _70  and  _71
REMARK   20  A    between atoms: _74  and  _76
REMARK   21  A    between atoms: _76  and  _77
REMARK   22  A    between atoms: _76  and  _79
REMARK   23  A    between atoms: _82  and  _84
REMARK   24  A    between atoms: _84  and  _85
REMARK   25  A    between atoms: _84  and  _87
REMARK   26  A    between atoms: _87  and  _88
REMARK   27  A    between atoms: _91  and  _93
REMARK   28  A    between atoms: _93  and  _94
REMARK   29  A    between atoms: _93  and  _96
REMARK   30  A    between atoms: _96  and  _97
REMARK   31  A    between atoms: _102  and  _103
REMARK   32  A    between atoms: _105  and  _107
REMARK   33  A    between atoms: _107  and  _108
REMARK   34  A    between atoms: _107  and  _110
REMARK   35  A    between atoms: _110  and  _111
REMARK   36  A    between atoms: _116  and  _117
REMARK   37  A    between atoms: _119  and  _121
REMARK   38  A    between atoms: _121  and  _122
REMARK   39  A    between atoms: _121  and  _128
REMARK   40  A    between atoms: _122  and  _123
REMARK   41  A    between atoms: _123  and  _124
REMARK   42  A    between atoms: _124  and  _125
REMARK   43  A    between atoms: _125  and  _126
REMARK   44  A    between atoms: _130  and  _131
REMARK   45  A    between atoms: _131  and  CO_480
REMARK   46  A    between atoms: _133  and  _135
REMARK   47  A    between atoms: _135  and  _136
REMARK   48  A    between atoms: _139  and  _141
REMARK   49  A    between atoms: _141  and  _142
REMARK   50  A    between atoms: _141  and  _144
REMARK   51  A    between atoms: _144  and  _145
REMARK   52  A    between atoms: _148  and  _150
REMARK   53  A    between atoms: _150  and  _151
REMARK   54  A    between atoms: _150  and  _153
REMARK   55  A    between atoms: _153  and  _154
REMARK   56  A    between atoms: _155  and  CO_480
REMARK   57  A    between atoms: _159  and  _161
REMARK   58  A    between atoms: _161  and  _162
REMARK   59  A    between atoms: _161  and  _164
REMARK   60  A    between atoms: _164  and  _165
REMARK   61  A    between atoms: _167  and  _169
REMARK   62  A    between atoms: _169  and  _170
REMARK   63  A    between atoms: _169  and  _172
REMARK   64  A    between atoms: _172  and  _173
REMARK   65  A    between atoms: _177  and  CO_480
REMARK   66  A    between atoms: _178  and  _180
REMARK   67  A    between atoms: _180  and  _181
REMARK   68  A    between atoms: _180  and  _183
REMARK   69  A    between atoms: _183  and  _184
REMARK   70  A    between atoms: _184  and  _185
REMARK   71  A    between atoms: _185  and  _186
REMARK   72  A    between atoms: _195  and  _197
REMARK   73  A    between atoms: _197  and  _198
REMARK   74  A    between atoms: _200  and  _202
REMARK   75  A    between atoms: _202  and  _203
REMARK   76  A    between atoms: _202  and  _205
REMARK   77  A    between atoms: _205  and  _206
REMARK   78  A    between atoms: _209  and  _211
REMARK   79  A    between atoms: _211  and  _212
REMARK   80  A    between atoms: _211  and  _214
REMARK   81  A    between atoms: _214  and  _215
REMARK   82  A    between atoms: _218  and  _220
REMARK   83  A    between atoms: _220  and  _221
REMARK   84  A    between atoms: _220  and  _223
REMARK   85  A    between atoms: _223  and  _224
REMARK   86  A    between atoms: _227  and  _229
REMARK   87  A    between atoms: _229  and  _230
REMARK   88  A    between atoms: _229  and  _232
REMARK   89  A    between atoms: _232  and  _233
REMARK   90  A    between atoms: _239  and  _241
REMARK   91  A    between atoms: _241  and  _242
REMARK   92  A    between atoms: _241  and  _244
REMARK   93  A    between atoms: _244  and  _245
REMARK   94  A    between atoms: _250  and  _252
REMARK   95  A    between atoms: _252  and  _253
REMARK   96  A    between atoms: _252  and  _255
REMARK   97  A    between atoms: _255  and  _256
REMARK   98  A    between atoms: _256  and  _258
REMARK   99  A    between atoms: _258  and  FE_479
REMARK  100  A    between atoms: _259  and  _261
REMARK  101  A    between atoms: _261  and  _262
REMARK  102  A    between atoms: _261  and  _264
REMARK  103  A    between atoms: _264  and  _265
REMARK  104  A    between atoms: _270  and  _271
REMARK  105  A    between atoms: _273  and  _275
REMARK  106  A    between atoms: _275  and  _276
REMARK  107  A    between atoms: _275  and  _278
REMARK  108  A    between atoms: _280  and  _282
REMARK  109  A    between atoms: _282  and  _283
REMARK  110  A    between atoms: _282  and  _285
REMARK  111  A    between atoms: _285  and  _286
REMARK  112  A    between atoms: _289  and  _291
REMARK  113  A    between atoms: _291  and  _292
REMARK  114  A    between atoms: _291  and  _294
REMARK  115  A    between atoms: _294  and  _295
REMARK  116  A    between atoms: _298  and  _300
REMARK  117  A    between atoms: _300  and  _301
REMARK  118  A    between atoms: _300  and  _303
REMARK  119  A    between atoms: _303  and  _304
REMARK  120  A    between atoms: _307  and  _309
REMARK  121  A    between atoms: _309  and  _310
REMARK  122  A    between atoms: _309  and  _312
REMARK  123  A    between atoms: _312  and  _313
REMARK  124  A    between atoms: _323  and  _325
REMARK  125  A    between atoms: _325  and  _326
REMARK  126  A    between atoms: _328  and  _330
REMARK  127  A    between atoms: _330  and  _331
REMARK  128  A    between atoms: _330  and  _333
REMARK  129  A    between atoms: _333  and  _334
REMARK  130  A    between atoms: _337  and  _339
REMARK  131  A    between atoms: _339  and  _340
REMARK  132  A    between atoms: _343  and  _345
REMARK  133  A    between atoms: _345  and  _346
REMARK  134  A    between atoms: _345  and  _348
REMARK  135  A    between atoms: _348  and  _349
REMARK  136  A    between atoms: _349  and  _350
REMARK  137  A    between atoms: _350  and  _351
REMARK  138  A    between atoms: _351  and  _352
REMARK  139  A    between atoms: _357  and  _358
REMARK  140  A    between atoms: _363  and  _365
REMARK  141  A    between atoms: _365  and  _366
REMARK  142  A    between atoms: _365  and  _368
REMARK  143  A    between atoms: _368  and  _369
REMARK  144  A    between atoms: _369  and  _370
REMARK  145  A    between atoms: _373  and  _375
REMARK  146  A    between atoms: _375  and  _376
REMARK  147  A    between atoms: _375  and  _378
REMARK  148  A    between atoms: _378  and  _379
REMARK  149  A    between atoms: _384  and  _385
REMARK  150  A    between atoms: _387  and  _389
REMARK  151  A    between atoms: _389  and  _390
REMARK  152  A    between atoms: _389  and  _392
REMARK  153  A    between atoms: _392  and  _393
REMARK  154  A    between atoms: _393  and  _394
REMARK  155  A    between atoms: _394  and  _395
REMARK  156  A    between atoms: _395  and  _396
REMARK  157  A    between atoms: _401  and  _402
REMARK  158  A    between atoms: _407  and  _409
REMARK  159  A    between atoms: _409  and  _410
REMARK  160  A    between atoms: _409  and  _412
REMARK  161  A    between atoms: _412  and  _413
REMARK  162  A    between atoms: _413  and  _414
REMARK  163  A    between atoms: _414  and  _415
REMARK  164  A    between atoms: _415  and  _416
REMARK  165  A    between atoms: _420  and  _422
REMARK  166  A    between atoms: _422  and  _423
REMARK  167  A    between atoms: _422  and  _425
REMARK  168  A    between atoms: _425  and  _426
REMARK  169  A    between atoms: _429  and  _431
REMARK  170  A    between atoms: _431  and  _432
REMARK  171  A    between atoms: _436  and  _437
REMARK  172  A    between atoms: _442  and  _444
REMARK  173  A    between atoms: _444  and  _445
REMARK  174  A    between atoms: _444  and  _447
REMARK  175  A    between atoms: _447  and  _448
REMARK  176  A    between atoms: _458  and  _460
REMARK  177  A    between atoms: _460  and  _461
REMARK  178  A    between atoms: _460  and  _463
REMARK  179  A    between atoms: _463  and  _464
REMARK  180  A    between atoms: _470  and  _472
REMARK  181  A    between atoms: _472  and  _473
REMARK  182  A    between atoms: _472  and  _475
REMARK  183  A    between atoms: _475  and  _476
REMARK  184  A    between atoms: FE_479  and  _486
REMARK  185  A    between atoms: CO_480  and  _486
REMARK                            x       y       z     vdW  Elec       q    Type
REMARK                         _______ _______ _______ _____ _____    ______ ____
ROOT
ATOM      1  O   HOH     1      20.085 -27.375 -10.371  0.00  0.00    +0.000 OA
ENDROOT
TORSDOF 0
REMARK  Name = ../refined-set-2016/2vc7/2vc7_pocket.pdb
REMARK  185 active torsions:
REMARK  status: ('A' for Active; 'I' for Inactive)
REMARK    1  A    between atoms: _1  and  _3
REMARK    2  A    between atoms: _14  and  _17
REMARK    3  A    between atoms: _17  and  _18
REMARK    4  A    between atoms: _18  and  _19
REMARK    5  A    between atoms: _24  and  _25
REMARK    6  A    between atoms: _33  and  _35
REMARK    7  A    between atoms: _35  and  _36
REMARK    8  A    between atoms: _35  and  _38
REMARK    9  A    between atoms: _38  and  _39
REMARK   10  A    between atoms: _39  and  _40
REMARK   11  A    between atoms: _40  and  _41
REMARK   12  A    between atoms: _50  and  _52
REMARK   13  A    between atoms: _52  and  _53
REMARK   14  A    between atoms: _52  and  _55
REMARK   15  A    between atoms: _59  and  _60
REMARK   16  A    between atoms: _65  and  _67
REMARK   17  A    between atoms: _67  and  _68
REMARK   18  A    between atoms: _67  and  _70
REMARK   19  A    between atoms: _70  and  _71
REMARK   20  A    between atoms: _74  and  _76
REMARK   21  A    between atoms: _76  and  _77
REMARK   22  A    between atoms: _76  and  _79
REMARK   23  A    between atoms: _82  and  _84
REMARK   24  A    between atoms: _84  and  _85
REMARK   25  A    between atoms: _84  and  _87
REMARK   26  A    between atoms: _87  and  _88
REMARK   27  A    between atoms: _91  and  _93
REMARK   28  A    between atoms: _93  and  _94
REMARK   29  A    between atoms: _93  and  _96
REMARK   30  A    between atoms: _96  and  _97
REMARK   31  A    between atoms: _102  and  _103
REMARK   32  A    between atoms: _105  and  _107
REMARK   33  A    between atoms: _107  and  _108
REMARK   34  A    between atoms: _107  and  _110
REMARK   35  A    between atoms: _110  and  _111
REMARK   36  A    between atoms: _116  and  _117
REMARK   37  A    between atoms: _119  and  _121
REMARK   38  A    between atoms: _121  and  _122
REMARK   39  A    between atoms: _121  and  _128
REMARK   40  A    between atoms: _122  and  _123
REMARK   41  A    between atoms: _123  and  _124
REMARK   42  A    between atoms: _124  and  _125
REMARK   43  A    between atoms: _125  and  _126
REMARK   44  A    between atoms: _130  and  _131
REMARK   45  A    between atoms: _131  and  CO_480
REMARK   46  A    between atoms: _133  and  _135
REMARK   47  A    between atoms: _135  and  _136
REMARK   48  A    between atoms: _139  and  _141
REMARK   49  A    between atoms: _141  and  _142
REMARK   50  A    between atoms: _141  and  _144
REMARK   51  A    between atoms: _144  and  _145
REMARK   52  A    between atoms: _148  and  _150
REMARK   53  A    between atoms: _150  and  _151
REMARK   54  A    between atoms: _150  and  _153
REMARK   55  A    between atoms: _153  and  _154
REMARK   56  A    between atoms: _155  and  CO_480
REMARK   57  A    between atoms: _159  and  _161
REMARK   58  A    between atoms: _161  and  _162
REMARK   59  A    between atoms: _161  and  _164
REMARK   60  A    between atoms: _164  and  _165
REMARK   61  A    between atoms: _167  and  _169
REMARK   62  A    between atoms: _169  and  _170
REMARK   63  A    between atoms: _169  and  _172
REMARK   64  A    between atoms: _172  and  _173
REMARK   65  A    between atoms: _177  and  CO_480
REMARK   66  A    between atoms: _178  and  _180
REMARK   67  A    between atoms: _180  and  _181
REMARK   68  A    between atoms: _180  and  _183
REMARK   69  A    between atoms: _183  and  _184
REMARK   70  A    between atoms: _184  and  _185
REMARK   71  A    between atoms: _185  and  _186
REMARK   72  A    between atoms: _195  and  _197
REMARK   73  A    between atoms: _197  and  _198
REMARK   74  A    between atoms: _200  and  _202
REMARK   75  A    between atoms: _202  and  _203
REMARK   76  A    between atoms: _202  and  _205
REMARK   77  A    between atoms: _205  and  _206
REMARK   78  A    between atoms: _209  and  _211
REMARK   79  A    between atoms: _211  and  _212
REMARK   80  A    between atoms: _211  and  _214
REMARK   81  A    between atoms: _214  and  _215
REMARK   82  A    between atoms: _218  and  _220
REMARK   83  A    between atoms: _220  and  _221
REMARK   84  A    between atoms: _220  and  _223
REMARK   85  A    between atoms: _223  and  _224
REMARK   86  A    between atoms: _227  and  _229
REMARK   87  A    between atoms: _229  and  _230
REMARK   88  A    between atoms: _229  and  _232
REMARK   89  A    between atoms: _232  and  _233
REMARK   90  A    between atoms: _239  and  _241
REMARK   91  A    between atoms: _241  and  _242
REMARK   92  A    between atoms: _241  and  _244
REMARK   93  A    between atoms: _244  and  _245
REMARK   94  A    between atoms: _250  and  _252
REMARK   95  A    between atoms: _252  and  _253
REMARK   96  A    between atoms: _252  and  _255
REMARK   97  A    between atoms: _255  and  _256
REMARK   98  A    between atoms: _256  and  _258
REMARK   99  A    between atoms: _258  and  FE_479
REMARK  100  A    between atoms: _259  and  _261
REMARK  101  A    between atoms: _261  and  _262
REMARK  102  A    between atoms: _261  and  _264
REMARK  103  A    between atoms: _264  and  _265
REMARK  104  A    between atoms: _270  and  _271
REMARK  105  A    between atoms: _273  and  _275
REMARK  106  A    between atoms: _275  and  _276
REMARK  107  A    between atoms: _275  and  _278
REMARK  108  A    between atoms: _280  and  _282
REMARK  109  A    between atoms: _282  and  _283
REMARK  110  A    between atoms: _282  and  _285
REMARK  111  A    between atoms: _285  and  _286
REMARK  112  A    between atoms: _289  and  _291
REMARK  113  A    between atoms: _291  and  _292
REMARK  114  A    between atoms: _291  and  _294
REMARK  115  A    between atoms: _294  and  _295
REMARK  116  A    between atoms: _298  and  _300
REMARK  117  A    between atoms: _300  and  _301
REMARK  118  A    between atoms: _300  and  _303
REMARK  119  A    between atoms: _303  and  _304
REMARK  120  A    between atoms: _307  and  _309
REMARK  121  A    between atoms: _309  and  _310
REMARK  122  A    between atoms: _309  and  _312
REMARK  123  A    between atoms: _312  and  _313
REMARK  124  A    between atoms: _323  and  _325
REMARK  125  A    between atoms: _325  and  _326
REMARK  126  A    between atoms: _328  and  _330
REMARK  127  A    between atoms: _330  and  _331
REMARK  128  A    between atoms: _330  and  _333
REMARK  129  A    between atoms: _333  and  _334
REMARK  130  A    between atoms: _337  and  _339
REMARK  131  A    between atoms: _339  and  _340
REMARK  132  A    between atoms: _343  and  _345
REMARK  133  A    between atoms: _345  and  _346
REMARK  134  A    between atoms: _345  and  _348
REMARK  135  A    between atoms: _348  and  _349
REMARK  136  A    between atoms: _349  and  _350
REMARK  137  A    between atoms: _350  and  _351
REMARK  138  A    between atoms: _351  and  _352
REMARK  139  A    between atoms: _357  and  _358
REMARK  140  A    between atoms: _363  and  _365
REMARK  141  A    between atoms: _365  and  _366
REMARK  142  A    between atoms: _365  and  _368
REMARK  143  A    between atoms: _368  and  _369
REMARK  144  A    between atoms: _369  and  _370
REMARK  145  A    between atoms: _373  and  _375
REMARK  146  A    between atoms: _375  and  _376
REMARK  147  A    between atoms: _375  and  _378
REMARK  148  A    between atoms: _378  and  _379
REMARK  149  A    between atoms: _384  and  _385
REMARK  150  A    between atoms: _387  and  _389
REMARK  151  A    between atoms: _389  and  _390
REMARK  152  A    between atoms: _389  and  _392
REMARK  153  A    between atoms: _392  and  _393
REMARK  154  A    between atoms: _393  and  _394
REMARK  155  A    between atoms: _394  and  _395
REMARK  156  A    between atoms: _395  and  _396
REMARK  157  A    between atoms: _401  and  _402
REMARK  158  A    between atoms: _407  and  _409
REMARK  159  A    between atoms: _409  and  _410
REMARK  160  A    between atoms: _409  and  _412
REMARK  161  A    between atoms: _412  and  _413
REMARK  162  A    between atoms: _413  and  _414
REMARK  163  A    between atoms: _414  and  _415
REMARK  164  A    between atoms: _415  and  _416
REMARK  165  A    between atoms: _420  and  _422
REMARK  166  A    between atoms: _422  and  _423
REMARK  167  A    between atoms: _422  and  _425
REMARK  168  A    between atoms: _425  and  _426
REMARK  169  A    between atoms: _429  and  _431
REMARK  170  A    between atoms: _431  and  _432
REMARK  171  A    between atoms: _436  and  _437
REMARK  172  A    between atoms: _442  and  _444
REMARK  173  A    between atoms: _444  and  _445
REMARK  174  A    between atoms: _444  and  _447
REMARK  175  A    between atoms: _447  and  _448
REMARK  176  A    between atoms: _458  and  _460
REMARK  177  A    between atoms: _460  and  _461
REMARK  178  A    between atoms: _460  and  _463
REMARK  179  A    between atoms: _463  and  _464
REMARK  180  A    between atoms: _470  and  _472
REMARK  181  A    between atoms: _472  and  _473
REMARK  182  A    between atoms: _472  and  _475
REMARK  183  A    between atoms: _475  and  _476
REMARK  184  A    between atoms: FE_479  and  _486
REMARK  185  A    between atoms: CO_480  and  _486
REMARK                            x       y       z     vdW  Elec       q    Type
REMARK                         _______ _______ _______ _____ _____    ______ ____
ROOT
ATOM      1  O   HOH     1      17.747 -26.563  -7.353  0.00  0.00    +0.000 OA
ENDROOT
TORSDOF 0
REMARK  Name = ../refined-set-2016/2vc7/2vc7_pocket.pdb
REMARK  185 active torsions:
REMARK  status: ('A' for Active; 'I' for Inactive)
REMARK    1  A    between atoms: _1  and  _3
REMARK    2  A    between atoms: _14  and  _17
REMARK    3  A    between atoms: _17  and  _18
REMARK    4  A    between atoms: _18  and  _19
REMARK    5  A    between atoms: _24  and  _25
REMARK    6  A    between atoms: _33  and  _35
REMARK    7  A    between atoms: _35  and  _36
REMARK    8  A    between atoms: _35  and  _38
REMARK    9  A    between atoms: _38  and  _39
REMARK   10  A    between atoms: _39  and  _40
REMARK   11  A    between atoms: _40  and  _41
REMARK   12  A    between atoms: _50  and  _52
REMARK   13  A    between atoms: _52  and  _53
REMARK   14  A    between atoms: _52  and  _55
REMARK   15  A    between atoms: _59  and  _60
REMARK   16  A    between atoms: _65  and  _67
REMARK   17  A    between atoms: _67  and  _68
REMARK   18  A    between atoms: _67  and  _70
REMARK   19  A    between atoms: _70  and  _71
REMARK   20  A    between atoms: _74  and  _76
REMARK   21  A    between atoms: _76  and  _77
REMARK   22  A    between atoms: _76  and  _79
REMARK   23  A    between atoms: _82  and  _84
REMARK   24  A    between atoms: _84  and  _85
REMARK   25  A    between atoms: _84  and  _87
REMARK   26  A    between atoms: _87  and  _88
REMARK   27  A    between atoms: _91  and  _93
REMARK   28  A    between atoms: _93  and  _94
REMARK   29  A    between atoms: _93  and  _96
REMARK   30  A    between atoms: _96  and  _97
REMARK   31  A    between atoms: _102  and  _103
REMARK   32  A    between atoms: _105  and  _107
REMARK   33  A    between atoms: _107  and  _108
REMARK   34  A    between atoms: _107  and  _110
REMARK   35  A    between atoms: _110  and  _111
REMARK   36  A    between atoms: _116  and  _117
REMARK   37  A    between atoms: _119  and  _121
REMARK   38  A    between atoms: _121  and  _122
REMARK   39  A    between atoms: _121  and  _128
REMARK   40  A    between atoms: _122  and  _123
REMARK   41  A    between atoms: _123  and  _124
REMARK   42  A    between atoms: _124  and  _125
REMARK   43  A    between atoms: _125  and  _126
REMARK   44  A    between atoms: _130  and  _131
REMARK   45  A    between atoms: _131  and  CO_480
REMARK   46  A    between atoms: _133  and  _135
REMARK   47  A    between atoms: _135  and  _136
REMARK   48  A    between atoms: _139  and  _141
REMARK   49  A    between atoms: _141  and  _142
REMARK   50  A    between atoms: _141  and  _144
REMARK   51  A    between atoms: _144  and  _145
REMARK   52  A    between atoms: _148  and  _150
REMARK   53  A    between atoms: _150  and  _151
REMARK   54  A    between atoms: _150  and  _153
REMARK   55  A    between atoms: _153  and  _154
REMARK   56  A    between atoms: _155  and  CO_480
REMARK   57  A    between atoms: _159  and  _161
REMARK   58  A    between atoms: _161  and  _162
REMARK   59  A    between atoms: _161  and  _164
REMARK   60  A    between atoms: _164  and  _165
REMARK   61  A    between atoms: _167  and  _169
REMARK   62  A    between atoms: _169  and  _170
REMARK   63  A    between atoms: _169  and  _172
REMARK   64  A    between atoms: _172  and  _173
REMARK   65  A    between atoms: _177  and  CO_480
REMARK   66  A    between atoms: _178  and  _180
REMARK   67  A    between atoms: _180  and  _181
REMARK   68  A    between atoms: _180  and  _183
REMARK   69  A    between atoms: _183  and  _184
REMARK   70  A    between atoms: _184  and  _185
REMARK   71  A    between atoms: _185  and  _186
REMARK   72  A    between atoms: _195  and  _197
REMARK   73  A    between atoms: _197  and  _198
REMARK   74  A    between atoms: _200  and  _202
REMARK   75  A    between atoms: _202  and  _203
REMARK   76  A    between atoms: _202  and  _205
REMARK   77  A    between atoms: _205  and  _206
REMARK   78  A    between atoms: _209  and  _211
REMARK   79  A    between atoms: _211  and  _212
REMARK   80  A    between atoms: _211  and  _214
REMARK   81  A    between atoms: _214  and  _215
REMARK   82  A    between atoms: _218  and  _220
REMARK   83  A    between atoms: _220  and  _221
REMARK   84  A    between atoms: _220  and  _223
REMARK   85  A    between atoms: _223  and  _224
REMARK   86  A    between atoms: _227  and  _229
REMARK   87  A    between atoms: _229  and  _230
REMARK   88  A    between atoms: _229  and  _232
REMARK   89  A    between atoms: _232  and  _233
REMARK   90  A    between atoms: _239  and  _241
REMARK   91  A    between atoms: _241  and  _242
REMARK   92  A    between atoms: _241  and  _244
REMARK   93  A    between atoms: _244  and  _245
REMARK   94  A    between atoms: _250  and  _252
REMARK   95  A    between atoms: _252  and  _253
REMARK   96  A    between atoms: _252  and  _255
REMARK   97  A    between atoms: _255  and  _256
REMARK   98  A    between atoms: _256  and  _258
REMARK   99  A    between atoms: _258  and  FE_479
REMARK  100  A    between atoms: _259  and  _261
REMARK  101  A    between atoms: _261  and  _262
REMARK  102  A    between atoms: _261  and  _264
REMARK  103  A    between atoms: _264  and  _265
REMARK  104  A    between atoms: _270  and  _271
REMARK  105  A    between atoms: _273  and  _275
REMARK  106  A    between atoms: _275  and  _276
REMARK  107  A    between atoms: _275  and  _278
REMARK  108  A    between atoms: _280  and  _282
REMARK  109  A    between atoms: _282  and  _283
REMARK  110  A    between atoms: _282  and  _285
REMARK  111  A    between atoms: _285  and  _286
REMARK  112  A    between atoms: _289  and  _291
REMARK  113  A    between atoms: _291  and  _292
REMARK  114  A    between atoms: _291  and  _294
REMARK  115  A    between atoms: _294  and  _295
REMARK  116  A    between atoms: _298  and  _300
REMARK  117  A    between atoms: _300  and  _301
REMARK  118  A    between atoms: _300  and  _303
REMARK  119  A    between atoms: _303  and  _304
REMARK  120  A    between atoms: _307  and  _309
REMARK  121  A    between atoms: _309  and  _310
REMARK  122  A    between atoms: _309  and  _312
REMARK  123  A    between atoms: _312  and  _313
REMARK  124  A    between atoms: _323  and  _325
REMARK  125  A    between atoms: _325  and  _326
REMARK  126  A    between atoms: _328  and  _330
REMARK  127  A    between atoms: _330  and  _331
REMARK  128  A    between atoms: _330  and  _333
REMARK  129  A    between atoms: _333  and  _334
REMARK  130  A    between atoms: _337  and  _339
REMARK  131  A    between atoms: _339  and  _340
REMARK  132  A    between atoms: _343  and  _345
REMARK  133  A    between atoms: _345  and  _346
REMARK  134  A    between atoms: _345  and  _348
REMARK  135  A    between atoms: _348  and  _349
REMARK  136  A    between atoms: _349  and  _350
REMARK  137  A    between atoms: _350  and  _351
REMARK  138  A    between atoms: _351  and  _352
REMARK  139  A    between atoms: _357  and  _358
REMARK  140  A    between atoms: _363  and  _365
REMARK  141  A    between atoms: _365  and  _366
REMARK  142  A    between atoms: _365  and  _368
REMARK  143  A    between atoms: _368  and  _369
REMARK  144  A    between atoms: _369  and  _370
REMARK  145  A    between atoms: _373  and  _375
REMARK  146  A    between atoms: _375  and  _376
REMARK  147  A    between atoms: _375  and  _378
REMARK  148  A    between atoms: _378  and  _379
REMARK  149  A    between atoms: _384  and  _385
REMARK  150  A    between atoms: _387  and  _389
REMARK  151  A    between atoms: _389  and  _390
REMARK  152  A    between atoms: _389  and  _392
REMARK  153  A    between atoms: _392  and  _393
REMARK  154  A    between atoms: _393  and  _394
REMARK  155  A    between atoms: _394  and  _395
REMARK  156  A    between atoms: _395  and  _396
REMARK  157  A    between atoms: _401  and  _402
REMARK  158  A    between atoms: _407  and  _409
REMARK  159  A    between atoms: _409  and  _410
REMARK  160  A    between atoms: _409  and  _412
REMARK  161  A    between atoms: _412  and  _413
REMARK  162  A    between atoms: _413  and  _414
REMARK  163  A    between atoms: _414  and  _415
REMARK  164  A    between atoms: _415  and  _416
REMARK  165  A    between atoms: _420  and  _422
REMARK  166  A    between atoms: _422  and  _423
REMARK  167  A    between atoms: _422  and  _425
REMARK  168  A    between atoms: _425  and  _426
REMARK  169  A    between atoms: _429  and  _431
REMARK  170  A    between atoms: _431  and  _432
REMARK  171  A    between atoms: _436  and  _437
REMARK  172  A    between atoms: _442  and  _444
REMARK  173  A    between atoms: _444  and  _445
REMARK  174  A    between atoms: _444  and  _447
REMARK  175  A    between atoms: _447  and  _448
REMARK  176  A    between atoms: _458  and  _460
REMARK  177  A    between atoms: _460  and  _461
REMARK  178  A    between atoms: _460  and  _463
REMARK  179  A    between atoms: _463  and  _464
REMARK  180  A    between atoms: _470  and  _472
REMARK  181  A    between atoms: _472  and  _473
REMARK  182  A    between atoms: _472  and  _475
REMARK  183  A    between atoms: _475  and  _476
REMARK  184  A    between atoms: FE_479  and  _486
REMARK  185  A    between atoms: CO_480  and  _486
REMARK                            x       y       z     vdW  Elec       q    Type
REMARK                         _______ _______ _______ _____ _____    ______ ____
ROOT
ATOM      1  O   HOH     1      21.631 -18.049  -4.327  0.00  0.00    +0.000 OA
ENDROOT
TORSDOF 0
REMARK  Name = ../refined-set-2016/2vc7/2vc7_pocket.pdb
REMARK  185 active torsions:
REMARK  status: ('A' for Active; 'I' for Inactive)
REMARK    1  A    between atoms: _1  and  _3
REMARK    2  A    between atoms: _14  and  _17
REMARK    3  A    between atoms: _17  and  _18
REMARK    4  A    between atoms: _18  and  _19
REMARK    5  A    between atoms: _24  and  _25
REMARK    6  A    between atoms: _33  and  _35
REMARK    7  A    between atoms: _35  and  _36
REMARK    8  A    between atoms: _35  and  _38
REMARK    9  A    between atoms: _38  and  _39
REMARK   10  A    between atoms: _39  and  _40
REMARK   11  A    between atoms: _40  and  _41
REMARK   12  A    between atoms: _50  and  _52
REMARK   13  A    between atoms: _52  and  _53
REMARK   14  A    between atoms: _52  and  _55
REMARK   15  A    between atoms: _59  and  _60
REMARK   16  A    between atoms: _65  and  _67
REMARK   17  A    between atoms: _67  and  _68
REMARK   18  A    between atoms: _67  and  _70
REMARK   19  A    between atoms: _70  and  _71
REMARK   20  A    between atoms: _74  and  _76
REMARK   21  A    between atoms: _76  and  _77
REMARK   22  A    between atoms: _76  and  _79
REMARK   23  A    between atoms: _82  and  _84
REMARK   24  A    between atoms: _84  and  _85
REMARK   25  A    between atoms: _84  and  _87
REMARK   26  A    between atoms: _87  and  _88
REMARK   27  A    between atoms: _91  and  _93
REMARK   28  A    between atoms: _93  and  _94
REMARK   29  A    between atoms: _93  and  _96
REMARK   30  A    between atoms: _96  and  _97
REMARK   31  A    between atoms: _102  and  _103
REMARK   32  A    between atoms: _105  and  _107
REMARK   33  A    between atoms: _107  and  _108
REMARK   34  A    between atoms: _107  and  _110
REMARK   35  A    between atoms: _110  and  _111
REMARK   36  A    between atoms: _116  and  _117
REMARK   37  A    between atoms: _119  and  _121
REMARK   38  A    between atoms: _121  and  _122
REMARK   39  A    between atoms: _121  and  _128
REMARK   40  A    between atoms: _122  and  _123
REMARK   41  A    between atoms: _123  and  _124
REMARK   42  A    between atoms: _124  and  _125
REMARK   43  A    between atoms: _125  and  _126
REMARK   44  A    between atoms: _130  and  _131
REMARK   45  A    between atoms: _131  and  CO_480
REMARK   46  A    between atoms: _133  and  _135
REMARK   47  A    between atoms: _135  and  _136
REMARK   48  A    between atoms: _139  and  _141
REMARK   49  A    between atoms: _141  and  _142
REMARK   50  A    between atoms: _141  and  _144
REMARK   51  A    between atoms: _144  and  _145
REMARK   52  A    between atoms: _148  and  _150
REMARK   53  A    between atoms: _150  and  _151
REMARK   54  A    between atoms: _150  and  _153
REMARK   55  A    between atoms: _153  and  _154
REMARK   56  A    between atoms: _155  and  CO_480
REMARK   57  A    between atoms: _159  and  _161
REMARK   58  A    between atoms: _161  and  _162
REMARK   59  A    between atoms: _161  and  _164
REMARK   60  A    between atoms: _164  and  _165
REMARK   61  A    between atoms: _167  and  _169
REMARK   62  A    between atoms: _169  and  _170
REMARK   63  A    between atoms: _169  and  _172
REMARK   64  A    between atoms: _172  and  _173
REMARK   65  A    between atoms: _177  and  CO_480
REMARK   66  A    between atoms: _178  and  _180
REMARK   67  A    between atoms: _180  and  _181
REMARK   68  A    between atoms: _180  and  _183
REMARK   69  A    between atoms: _183  and  _184
REMARK   70  A    between atoms: _184  and  _185
REMARK   71  A    between atoms: _185  and  _186
REMARK   72  A    between atoms: _195  and  _197
REMARK   73  A    between atoms: _197  and  _198
REMARK   74  A    between atoms: _200  and  _202
REMARK   75  A    between atoms: _202  and  _203
REMARK   76  A    between atoms: _202  and  _205
REMARK   77  A    between atoms: _205  and  _206
REMARK   78  A    between atoms: _209  and  _211
REMARK   79  A    between atoms: _211  and  _212
REMARK   80  A    between atoms: _211  and  _214
REMARK   81  A    between atoms: _214  and  _215
REMARK   82  A    between atoms: _218  and  _220
REMARK   83  A    between atoms: _220  and  _221
REMARK   84  A    between atoms: _220  and  _223
REMARK   85  A    between atoms: _223  and  _224
REMARK   86  A    between atoms: _227  and  _229
REMARK   87  A    between atoms: _229  and  _230
REMARK   88  A    between atoms: _229  and  _232
REMARK   89  A    between atoms: _232  and  _233
REMARK   90  A    between atoms: _239  and  _241
REMARK   91  A    between atoms: _241  and  _242
REMARK   92  A    between atoms: _241  and  _244
REMARK   93  A    between atoms: _244  and  _245
REMARK   94  A    between atoms: _250  and  _252
REMARK   95  A    between atoms: _252  and  _253
REMARK   96  A    between atoms: _252  and  _255
REMARK   97  A    between atoms: _255  and  _256
REMARK   98  A    between atoms: _256  and  _258
REMARK   99  A    between atoms: _258  and  FE_479
REMARK  100  A    between atoms: _259  and  _261
REMARK  101  A    between atoms: _261  and  _262
REMARK  102  A    between atoms: _261  and  _264
REMARK  103  A    between atoms: _264  and  _265
REMARK  104  A    between atoms: _270  and  _271
REMARK  105  A    between atoms: _273  and  _275
REMARK  106  A    between atoms: _275  and  _276
REMARK  107  A    between atoms: _275  and  _278
REMARK  108  A    between atoms: _280  and  _282
REMARK  109  A    between atoms: _282  and  _283
REMARK  110  A    between atoms: _282  and  _285
REMARK  111  A    between atoms: _285  and  _286
REMARK  112  A    between atoms: _289  and  _291
REMARK  113  A    between atoms: _291  and  _292
REMARK  114  A    between atoms: _291  and  _294
REMARK  115  A    between atoms: _294  and  _295
REMARK  116  A    between atoms: _298  and  _300
REMARK  117  A    between atoms: _300  and  _301
REMARK  118  A    between atoms: _300  and  _303
REMARK  119  A    between atoms: _303  and  _304
REMARK  120  A    between atoms: _307  and  _309
REMARK  121  A    between atoms: _309  and  _310
REMARK  122  A    between atoms: _309  and  _312
REMARK  123  A    between atoms: _312  and  _313
REMARK  124  A    between atoms: _323  and  _325
REMARK  125  A    between atoms: _325  and  _326
REMARK  126  A    between atoms: _328  and  _330
REMARK  127  A    between atoms: _330  and  _331
REMARK  128  A    between atoms: _330  and  _333
REMARK  129  A    between atoms: _333  and  _334
REMARK  130  A    between atoms: _337  and  _339
REMARK  131  A    between atoms: _339  and  _340
REMARK  132  A    between atoms: _343  and  _345
REMARK  133  A    between atoms: _345  and  _346
REMARK  134  A    between atoms: _345  and  _348
REMARK  135  A    between atoms: _348  and  _349
REMARK  136  A    between atoms: _349  and  _350
REMARK  137  A    between atoms: _350  and  _351
REMARK  138  A    between atoms: _351  and  _352
REMARK  139  A    between atoms: _357  and  _358
REMARK  140  A    between atoms: _363  and  _365
REMARK  141  A    between atoms: _365  and  _366
REMARK  142  A    between atoms: _365  and  _368
REMARK  143  A    between atoms: _368  and  _369
REMARK  144  A    between atoms: _369  and  _370
REMARK  145  A    between atoms: _373  and  _375
REMARK  146  A    between atoms: _375  and  _376
REMARK  147  A    between atoms: _375  and  _378
REMARK  148  A    between atoms: _378  and  _379
REMARK  149  A    between atoms: _384  and  _385
REMARK  150  A    between atoms: _387  and  _389
REMARK  151  A    between atoms: _389  and  _390
REMARK  152  A    between atoms: _389  and  _392
REMARK  153  A    between atoms: _392  and  _393
REMARK  154  A    between atoms: _393  and  _394
REMARK  155  A    between atoms: _394  and  _395
REMARK  156  A    between atoms: _395  and  _396
REMARK  157  A    between atoms: _401  and  _402
REMARK  158  A    between atoms: _407  and  _409
REMARK  159  A    between atoms: _409  and  _410
REMARK  160  A    between atoms: _409  and  _412
REMARK  161  A    between atoms: _412  and  _413
REMARK  162  A    between atoms: _413  and  _414
REMARK  163  A    between atoms: _414  and  _415
REMARK  164  A    between atoms: _415  and  _416
REMARK  165  A    between atoms: _420  and  _422
REMARK  166  A    between atoms: _422  and  _423
REMARK  167  A    between atoms: _422  and  _425
REMARK  168  A    between atoms: _425  and  _426
REMARK  169  A    between atoms: _429  and  _431
REMARK  170  A    between atoms: _431  and  _432
REMARK  171  A    between atoms: _436  and  _437
REMARK  172  A    between atoms: _442  and  _444
REMARK  173  A    between atoms: _444  and  _445
REMARK  174  A    between atoms: _444  and  _447
REMARK  175  A    between atoms: _447  and  _448
REMARK  176  A    between atoms: _458  and  _460
REMARK  177  A    between atoms: _460  and  _461
REMARK  178  A    between atoms: _460  and  _463
REMARK  179  A    between atoms: _463  and  _464
REMARK  180  A    between atoms: _470  and  _472
REMARK  181  A    between atoms: _472  and  _473
REMARK  182  A    between atoms: _472  and  _475
REMARK  183  A    between atoms: _475  and  _476
REMARK  184  A    between atoms: FE_479  and  _486
REMARK  185  A    between atoms: CO_480  and  _486
REMARK                            x       y       z     vdW  Elec       q    Type
REMARK                         _______ _______ _______ _____ _____    ______ ____
ROOT
ATOM      1  O   HOH     1      11.933 -18.558  -8.484  0.00  0.00    +0.000 OA
ENDROOT
TORSDOF 0
