REMARK  Name = ../refined-set-2016/2aod/2aod_pocket.pdb
REMARK  239 active torsions:
REMARK  status: ('A' for Active; 'I' for Inactive)
REMARK    1  A    between atoms: _1  and  _3
REMARK    2  A    between atoms: _3  and  _4
REMARK    3  A    between atoms: _3  and  _6
REMARK    4  A    between atoms: _6  and  _7
REMARK    5  A    between atoms: _7  and  _8
REMARK    6  A    between atoms: _8  and  _9
REMARK    7  A    between atoms: _18  and  _20
REMARK    8  A    between atoms: _20  and  _21
REMARK    9  A    between atoms: _20  and  _23
REMARK   10  A    between atoms: _23  and  _24
REMARK   11  A    between atoms: _27  and  _29
REMARK   12  A    between atoms: _29  and  _30
REMARK   13  A    between atoms: _29  and  _32
REMARK   14  A    between atoms: _32  and  _33
REMARK   15  A    between atoms: _33  and  _34
REMARK   16  A    between atoms: _37  and  _39
REMARK   17  A    between atoms: _39  and  _40
REMARK   18  A    between atoms: _39  and  _42
REMARK   19  A    between atoms: _42  and  _43
REMARK   20  A    between atoms: _46  and  _48
REMARK   21  A    between atoms: _48  and  _49
REMARK   22  A    between atoms: _48  and  _51
REMARK   23  A    between atoms: _51  and  _52
REMARK   24  A    between atoms: _55  and  _57
REMARK   25  A    between atoms: _57  and  _58
REMARK   26  A    between atoms: _57  and  _60
REMARK   27  A    between atoms: _60  and  _61
REMARK   28  A    between atoms: _64  and  _66
REMARK   29  A    between atoms: _66  and  _67
REMARK   30  A    between atoms: _69  and  _71
REMARK   31  A    between atoms: _71  and  _72
REMARK   32  A    between atoms: _75  and  _77
REMARK   33  A    between atoms: _77  and  _78
REMARK   34  A    between atoms: _77  and  _80
REMARK   35  A    between atoms: _80  and  _81
REMARK   36  A    between atoms: _84  and  _86
REMARK   37  A    between atoms: _86  and  _87
REMARK   38  A    between atoms: _86  and  _89
REMARK   39  A    between atoms: _89  and  _90
REMARK   40  A    between atoms: _93  and  _95
REMARK   41  A    between atoms: _95  and  _96
REMARK   42  A    between atoms: _95  and  _98
REMARK   43  A    between atoms: _98  and  _99
REMARK   44  A    between atoms: _102  and  _104
REMARK   45  A    between atoms: _104  and  _105
REMARK   46  A    between atoms: _104  and  _107
REMARK   47  A    between atoms: _110  and  _112
REMARK   48  A    between atoms: _112  and  _113
REMARK   49  A    between atoms: _112  and  _115
REMARK   50  A    between atoms: _115  and  _116
REMARK   51  A    between atoms: _116  and  _117
REMARK   52  A    between atoms: _117  and  _118
REMARK   53  A    between atoms: _118  and  _119
REMARK   54  A    between atoms: _123  and  _125
REMARK   55  A    between atoms: _125  and  _126
REMARK   56  A    between atoms: _125  and  _128
REMARK   57  A    between atoms: _128  and  _129
REMARK   58  A    between atoms: _129  and  _130
REMARK   59  A    between atoms: _132  and  _134
REMARK   60  A    between atoms: _134  and  _135
REMARK   61  A    between atoms: _134  and  _137
REMARK   62  A    between atoms: _137  and  _138
REMARK   63  A    between atoms: _141  and  _143
REMARK   64  A    between atoms: _143  and  _144
REMARK   65  A    between atoms: _146  and  _148
REMARK   66  A    between atoms: _148  and  _149
REMARK   67  A    between atoms: _151  and  _153
REMARK   68  A    between atoms: _153  and  _154
REMARK   69  A    between atoms: _153  and  _156
REMARK   70  A    between atoms: _156  and  _157
REMARK   71  A    between atoms: _160  and  _162
REMARK   72  A    between atoms: _162  and  _163
REMARK   73  A    between atoms: _165  and  _167
REMARK   74  A    between atoms: _167  and  _168
REMARK   75  A    between atoms: _170  and  _172
REMARK   76  A    between atoms: _172  and  _173
REMARK   77  A    between atoms: _172  and  _175
REMARK   78  A    between atoms: _175  and  _176
REMARK   79  A    between atoms: _182  and  _184
REMARK   80  A    between atoms: _184  and  _185
REMARK   81  A    between atoms: _184  and  _187
REMARK   82  A    between atoms: _187  and  _188
REMARK   83  A    between atoms: _191  and  _193
REMARK   84  A    between atoms: _193  and  _194
REMARK   85  A    between atoms: _193  and  _196
REMARK   86  A    between atoms: _199  and  _201
REMARK   87  A    between atoms: _201  and  _202
REMARK   88  A    between atoms: _201  and  _204
REMARK   89  A    between atoms: _204  and  _205
REMARK   90  A    between atoms: _209  and  _210
REMARK   91  A    between atoms: _215  and  _217
REMARK   92  A    between atoms: _217  and  _218
REMARK   93  A    between atoms: _217  and  _220
REMARK   94  A    between atoms: _220  and  _221
REMARK   95  A    between atoms: _225  and  _226
REMARK   96  A    between atoms: _231  and  _233
REMARK   97  A    between atoms: _233  and  _234
REMARK   98  A    between atoms: _233  and  _236
REMARK   99  A    between atoms: _239  and  _241
REMARK  100  A    between atoms: _241  and  _242
REMARK  101  A    between atoms: _241  and  _244
REMARK  102  A    between atoms: _244  and  _245
REMARK  103  A    between atoms: _250  and  _252
REMARK  104  A    between atoms: _252  and  _253
REMARK  105  A    between atoms: _252  and  _255
REMARK  106  A    between atoms: _255  and  _256
REMARK  107  A    between atoms: _259  and  _261
REMARK  108  A    between atoms: _261  and  _262
REMARK  109  A    between atoms: _261  and  _264
REMARK  110  A    between atoms: _264  and  _265
REMARK  111  A    between atoms: _268  and  _270
REMARK  112  A    between atoms: _270  and  _271
REMARK  113  A    between atoms: _273  and  _275
REMARK  114  A    between atoms: _275  and  _276
REMARK  115  A    between atoms: _275  and  _278
REMARK  116  A    between atoms: _278  and  _279
REMARK  117  A    between atoms: _279  and  _280
REMARK  118  A    between atoms: _280  and  _281
REMARK  119  A    between atoms: _290  and  _292
REMARK  120  A    between atoms: _292  and  _293
REMARK  121  A    between atoms: _292  and  _295
REMARK  122  A    between atoms: _295  and  _296
REMARK  123  A    between atoms: _301  and  _303
REMARK  124  A    between atoms: _303  and  _304
REMARK  125  A    between atoms: _303  and  _306
REMARK  126  A    between atoms: _306  and  _307
REMARK  127  A    between atoms: _307  and  _308
REMARK  128  A    between atoms: _308  and  _309
REMARK  129  A    between atoms: _318  and  _320
REMARK  130  A    between atoms: _320  and  _321
REMARK  131  A    between atoms: _320  and  _323
REMARK  132  A    between atoms: _323  and  _324
REMARK  133  A    between atoms: _327  and  _329
REMARK  134  A    between atoms: _329  and  _330
REMARK  135  A    between atoms: _329  and  _332
REMARK  136  A    between atoms: _332  and  _333
REMARK  137  A    between atoms: _336  and  _338
REMARK  138  A    between atoms: _338  and  _339
REMARK  139  A    between atoms: _338  and  _341
REMARK  140  A    between atoms: _341  and  _342
REMARK  141  A    between atoms: _345  and  _347
REMARK  142  A    between atoms: _347  and  _348
REMARK  143  A    between atoms: _347  and  _350
REMARK  144  A    between atoms: _350  and  _351
REMARK  145  A    between atoms: _354  and  _356
REMARK  146  A    between atoms: _356  and  _357
REMARK  147  A    between atoms: _359  and  _361
REMARK  148  A    between atoms: _361  and  _362
REMARK  149  A    between atoms: _365  and  _367
REMARK  150  A    between atoms: _367  and  _368
REMARK  151  A    between atoms: _367  and  _370
REMARK  152  A    between atoms: _370  and  _371
REMARK  153  A    between atoms: _374  and  _376
REMARK  154  A    between atoms: _376  and  _377
REMARK  155  A    between atoms: _376  and  _379
REMARK  156  A    between atoms: _379  and  _380
REMARK  157  A    between atoms: _383  and  _385
REMARK  158  A    between atoms: _385  and  _386
REMARK  159  A    between atoms: _385  and  _388
REMARK  160  A    between atoms: _388  and  _389
REMARK  161  A    between atoms: _392  and  _394
REMARK  162  A    between atoms: _394  and  _395
REMARK  163  A    between atoms: _394  and  _397
REMARK  164  A    between atoms: _400  and  _402
REMARK  165  A    between atoms: _402  and  _403
REMARK  166  A    between atoms: _402  and  _405
REMARK  167  A    between atoms: _405  and  _406
REMARK  168  A    between atoms: _406  and  _407
REMARK  169  A    between atoms: _407  and  _408
REMARK  170  A    between atoms: _408  and  _409
REMARK  171  A    between atoms: _413  and  _415
REMARK  172  A    between atoms: _415  and  _416
REMARK  173  A    between atoms: _415  and  _418
REMARK  174  A    between atoms: _418  and  _419
REMARK  175  A    between atoms: _419  and  _420
REMARK  176  A    between atoms: _422  and  _424
REMARK  177  A    between atoms: _424  and  _425
REMARK  178  A    between atoms: _424  and  _427
REMARK  179  A    between atoms: _427  and  _428
REMARK  180  A    between atoms: _431  and  _433
REMARK  181  A    between atoms: _433  and  _434
REMARK  182  A    between atoms: _436  and  _438
REMARK  183  A    between atoms: _438  and  _439
REMARK  184  A    between atoms: _441  and  _443
REMARK  185  A    between atoms: _443  and  _444
REMARK  186  A    between atoms: _443  and  _446
REMARK  187  A    between atoms: _446  and  _447
REMARK  188  A    between atoms: _450  and  _452
REMARK  189  A    between atoms: _452  and  _453
REMARK  190  A    between atoms: _455  and  _457
REMARK  191  A    between atoms: _457  and  _458
REMARK  192  A    between atoms: _460  and  _462
REMARK  193  A    between atoms: _462  and  _463
REMARK  194  A    between atoms: _462  and  _465
REMARK  195  A    between atoms: _465  and  _466
REMARK  196  A    between atoms: _472  and  _474
REMARK  197  A    between atoms: _474  and  _475
REMARK  198  A    between atoms: _474  and  _477
REMARK  199  A    between atoms: _477  and  _478
REMARK  200  A    between atoms: _481  and  _483
REMARK  201  A    between atoms: _483  and  _484
REMARK  202  A    between atoms: _483  and  _486
REMARK  203  A    between atoms: _489  and  _491
REMARK  204  A    between atoms: _491  and  _492
REMARK  205  A    between atoms: _491  and  _494
REMARK  206  A    between atoms: _494  and  _495
REMARK  207  A    between atoms: _499  and  _500
REMARK  208  A    between atoms: _505  and  _507
REMARK  209  A    between atoms: _507  and  _508
REMARK  210  A    between atoms: _507  and  _510
REMARK  211  A    between atoms: _510  and  _511
REMARK  212  A    between atoms: _515  and  _516
REMARK  213  A    between atoms: _521  and  _523
REMARK  214  A    between atoms: _523  and  _524
REMARK  215  A    between atoms: _523  and  _526
REMARK  216  A    between atoms: _529  and  _531
REMARK  217  A    between atoms: _531  and  _532
REMARK  218  A    between atoms: _531  and  _534
REMARK  219  A    between atoms: _534  and  _535
REMARK  220  A    between atoms: _540  and  _542
REMARK  221  A    between atoms: _542  and  _543
REMARK  222  A    between atoms: _542  and  _545
REMARK  223  A    between atoms: _545  and  _546
REMARK  224  A    between atoms: _549  and  _551
REMARK  225  A    between atoms: _551  and  _552
REMARK  226  A    between atoms: _551  and  _554
REMARK  227  A    between atoms: _554  and  _555
REMARK  228  A    between atoms: _558  and  _560
REMARK  229  A    between atoms: _560  and  _561
REMARK  230  A    between atoms: _563  and  _565
REMARK  231  A    between atoms: _565  and  _566
REMARK  232  A    between atoms: _565  and  _568
REMARK  233  A    between atoms: _568  and  _569
REMARK  234  A    between atoms: _569  and  _570
REMARK  235  A    between atoms: _570  and  _571
REMARK  236  A    between atoms: _580  and  _582
REMARK  237  A    between atoms: _582  and  _583
REMARK  238  A    between atoms: _582  and  _585
REMARK  239  A    between atoms: _585  and  _586
REMARK                            x       y       z     vdW  Elec       q    Type
REMARK                         _______ _______ _______ _____ _____    ______ ____
ROOT
ATOM      1  NE  ARG A   1       5.889  20.245  15.597  0.00  0.00    -0.265 N 
ATOM      2  HE  ARG A   1       6.152  20.187  16.601  0.00  0.00    +0.259 HD
ATOM      3  CZ  ARG A   1       5.935  19.127  14.873  0.00  0.00    +0.342 C 
ATOM      4  NH2 ARG A   1       6.309  17.983  15.425  0.00  0.00    -0.292 N 
ATOM      5 HH21 ARG A   1       6.570  17.952  16.431  0.00  0.00    +0.255 HD
ATOM      6 HH22 ARG A   1       6.342  17.116  14.852  0.00  0.00    +0.255 HD
ATOM      7  NH1 ARG A   1       5.611  19.117  13.573  0.00  0.00    -0.292 N 
ATOM      8 HH11 ARG A   1       5.314  19.997  13.104  0.00  0.00    +0.255 HD
ATOM      9 HH12 ARG A   1       5.656  18.230  13.033  0.00  0.00    +0.255 HD
ENDROOT
BRANCH   1  10
ATOM     10  CD  ARG A   1       5.488  21.560  15.062  0.00  0.00    +0.174 C 
BRANCH  10  11
ATOM     11  CG  ARG A   1       5.054  22.438  16.213  0.00  0.00    +0.045 C 
BRANCH  11  12
ATOM     12  CB  ARG A   1       4.474  23.766  15.773  0.00  0.00    +0.029 C 
BRANCH  12  13
ATOM     13  CA  ARG A   1       3.874  24.606  16.909  0.00  0.00    +0.133 C 
BRANCH  13  14
ATOM     14  N   ARG A   1       2.627  24.016  17.377  0.00  0.00    -0.239 NA
ATOM     15  H   ARG A   1       2.251  23.158  16.926  0.00  0.00    +0.142 HD
ENDBRANCH  13  14
BRANCH  13  16
ATOM     16  C   ARG A   1       3.621  26.027  16.415  0.00  0.00    +0.224 C 
ATOM     17  O   ARG A   1       2.614  26.188  15.708  0.00  0.00    -0.287 OA
ENDBRANCH  13  16
ENDBRANCH  12  13
ENDBRANCH  11  12
ENDBRANCH  10  11
ENDBRANCH   1  10
TORSDOF 6
REMARK  Name = ../refined-set-2016/2aod/2aod_pocket.pdb
REMARK  239 active torsions:
REMARK  status: ('A' for Active; 'I' for Inactive)
REMARK    1  A    between atoms: _1  and  _3
REMARK    2  A    between atoms: _3  and  _4
REMARK    3  A    between atoms: _3  and  _6
REMARK    4  A    between atoms: _6  and  _7
REMARK    5  A    between atoms: _7  and  _8
REMARK    6  A    between atoms: _8  and  _9
REMARK    7  A    between atoms: _18  and  _20
REMARK    8  A    between atoms: _20  and  _21
REMARK    9  A    between atoms: _20  and  _23
REMARK   10  A    between atoms: _23  and  _24
REMARK   11  A    between atoms: _27  and  _29
REMARK   12  A    between atoms: _29  and  _30
REMARK   13  A    between atoms: _29  and  _32
REMARK   14  A    between atoms: _32  and  _33
REMARK   15  A    between atoms: _33  and  _34
REMARK   16  A    between atoms: _37  and  _39
REMARK   17  A    between atoms: _39  and  _40
REMARK   18  A    between atoms: _39  and  _42
REMARK   19  A    between atoms: _42  and  _43
REMARK   20  A    between atoms: _46  and  _48
REMARK   21  A    between atoms: _48  and  _49
REMARK   22  A    between atoms: _48  and  _51
REMARK   23  A    between atoms: _51  and  _52
REMARK   24  A    between atoms: _55  and  _57
REMARK   25  A    between atoms: _57  and  _58
REMARK   26  A    between atoms: _57  and  _60
REMARK   27  A    between atoms: _60  and  _61
REMARK   28  A    between atoms: _64  and  _66
REMARK   29  A    between atoms: _66  and  _67
REMARK   30  A    between atoms: _69  and  _71
REMARK   31  A    between atoms: _71  and  _72
REMARK   32  A    between atoms: _75  and  _77
REMARK   33  A    between atoms: _77  and  _78
REMARK   34  A    between atoms: _77  and  _80
REMARK   35  A    between atoms: _80  and  _81
REMARK   36  A    between atoms: _84  and  _86
REMARK   37  A    between atoms: _86  and  _87
REMARK   38  A    between atoms: _86  and  _89
REMARK   39  A    between atoms: _89  and  _90
REMARK   40  A    between atoms: _93  and  _95
REMARK   41  A    between atoms: _95  and  _96
REMARK   42  A    between atoms: _95  and  _98
REMARK   43  A    between atoms: _98  and  _99
REMARK   44  A    between atoms: _102  and  _104
REMARK   45  A    between atoms: _104  and  _105
REMARK   46  A    between atoms: _104  and  _107
REMARK   47  A    between atoms: _110  and  _112
REMARK   48  A    between atoms: _112  and  _113
REMARK   49  A    between atoms: _112  and  _115
REMARK   50  A    between atoms: _115  and  _116
REMARK   51  A    between atoms: _116  and  _117
REMARK   52  A    between atoms: _117  and  _118
REMARK   53  A    between atoms: _118  and  _119
REMARK   54  A    between atoms: _123  and  _125
REMARK   55  A    between atoms: _125  and  _126
REMARK   56  A    between atoms: _125  and  _128
REMARK   57  A    between atoms: _128  and  _129
REMARK   58  A    between atoms: _129  and  _130
REMARK   59  A    between atoms: _132  and  _134
REMARK   60  A    between atoms: _134  and  _135
REMARK   61  A    between atoms: _134  and  _137
REMARK   62  A    between atoms: _137  and  _138
REMARK   63  A    between atoms: _141  and  _143
REMARK   64  A    between atoms: _143  and  _144
REMARK   65  A    between atoms: _146  and  _148
REMARK   66  A    between atoms: _148  and  _149
REMARK   67  A    between atoms: _151  and  _153
REMARK   68  A    between atoms: _153  and  _154
REMARK   69  A    between atoms: _153  and  _156
REMARK   70  A    between atoms: _156  and  _157
REMARK   71  A    between atoms: _160  and  _162
REMARK   72  A    between atoms: _162  and  _163
REMARK   73  A    between atoms: _165  and  _167
REMARK   74  A    between atoms: _167  and  _168
REMARK   75  A    between atoms: _170  and  _172
REMARK   76  A    between atoms: _172  and  _173
REMARK   77  A    between atoms: _172  and  _175
REMARK   78  A    between atoms: _175  and  _176
REMARK   79  A    between atoms: _182  and  _184
REMARK   80  A    between atoms: _184  and  _185
REMARK   81  A    between atoms: _184  and  _187
REMARK   82  A    between atoms: _187  and  _188
REMARK   83  A    between atoms: _191  and  _193
REMARK   84  A    between atoms: _193  and  _194
REMARK   85  A    between atoms: _193  and  _196
REMARK   86  A    between atoms: _199  and  _201
REMARK   87  A    between atoms: _201  and  _202
REMARK   88  A    between atoms: _201  and  _204
REMARK   89  A    between atoms: _204  and  _205
REMARK   90  A    between atoms: _209  and  _210
REMARK   91  A    between atoms: _215  and  _217
REMARK   92  A    between atoms: _217  and  _218
REMARK   93  A    between atoms: _217  and  _220
REMARK   94  A    between atoms: _220  and  _221
REMARK   95  A    between atoms: _225  and  _226
REMARK   96  A    between atoms: _231  and  _233
REMARK   97  A    between atoms: _233  and  _234
REMARK   98  A    between atoms: _233  and  _236
REMARK   99  A    between atoms: _239  and  _241
REMARK  100  A    between atoms: _241  and  _242
REMARK  101  A    between atoms: _241  and  _244
REMARK  102  A    between atoms: _244  and  _245
REMARK  103  A    between atoms: _250  and  _252
REMARK  104  A    between atoms: _252  and  _253
REMARK  105  A    between atoms: _252  and  _255
REMARK  106  A    between atoms: _255  and  _256
REMARK  107  A    between atoms: _259  and  _261
REMARK  108  A    between atoms: _261  and  _262
REMARK  109  A    between atoms: _261  and  _264
REMARK  110  A    between atoms: _264  and  _265
REMARK  111  A    between atoms: _268  and  _270
REMARK  112  A    between atoms: _270  and  _271
REMARK  113  A    between atoms: _273  and  _275
REMARK  114  A    between atoms: _275  and  _276
REMARK  115  A    between atoms: _275  and  _278
REMARK  116  A    between atoms: _278  and  _279
REMARK  117  A    between atoms: _279  and  _280
REMARK  118  A    between atoms: _280  and  _281
REMARK  119  A    between atoms: _290  and  _292
REMARK  120  A    between atoms: _292  and  _293
REMARK  121  A    between atoms: _292  and  _295
REMARK  122  A    between atoms: _295  and  _296
REMARK  123  A    between atoms: _301  and  _303
REMARK  124  A    between atoms: _303  and  _304
REMARK  125  A    between atoms: _303  and  _306
REMARK  126  A    between atoms: _306  and  _307
REMARK  127  A    between atoms: _307  and  _308
REMARK  128  A    between atoms: _308  and  _309
REMARK  129  A    between atoms: _318  and  _320
REMARK  130  A    between atoms: _320  and  _321
REMARK  131  A    between atoms: _320  and  _323
REMARK  132  A    between atoms: _323  and  _324
REMARK  133  A    between atoms: _327  and  _329
REMARK  134  A    between atoms: _329  and  _330
REMARK  135  A    between atoms: _329  and  _332
REMARK  136  A    between atoms: _332  and  _333
REMARK  137  A    between atoms: _336  and  _338
REMARK  138  A    between atoms: _338  and  _339
REMARK  139  A    between atoms: _338  and  _341
REMARK  140  A    between atoms: _341  and  _342
REMARK  141  A    between atoms: _345  and  _347
REMARK  142  A    between atoms: _347  and  _348
REMARK  143  A    between atoms: _347  and  _350
REMARK  144  A    between atoms: _350  and  _351
REMARK  145  A    between atoms: _354  and  _356
REMARK  146  A    between atoms: _356  and  _357
REMARK  147  A    between atoms: _359  and  _361
REMARK  148  A    between atoms: _361  and  _362
REMARK  149  A    between atoms: _365  and  _367
REMARK  150  A    between atoms: _367  and  _368
REMARK  151  A    between atoms: _367  and  _370
REMARK  152  A    between atoms: _370  and  _371
REMARK  153  A    between atoms: _374  and  _376
REMARK  154  A    between atoms: _376  and  _377
REMARK  155  A    between atoms: _376  and  _379
REMARK  156  A    between atoms: _379  and  _380
REMARK  157  A    between atoms: _383  and  _385
REMARK  158  A    between atoms: _385  and  _386
REMARK  159  A    between atoms: _385  and  _388
REMARK  160  A    between atoms: _388  and  _389
REMARK  161  A    between atoms: _392  and  _394
REMARK  162  A    between atoms: _394  and  _395
REMARK  163  A    between atoms: _394  and  _397
REMARK  164  A    between atoms: _400  and  _402
REMARK  165  A    between atoms: _402  and  _403
REMARK  166  A    between atoms: _402  and  _405
REMARK  167  A    between atoms: _405  and  _406
REMARK  168  A    between atoms: _406  and  _407
REMARK  169  A    between atoms: _407  and  _408
REMARK  170  A    between atoms: _408  and  _409
REMARK  171  A    between atoms: _413  and  _415
REMARK  172  A    between atoms: _415  and  _416
REMARK  173  A    between atoms: _415  and  _418
REMARK  174  A    between atoms: _418  and  _419
REMARK  175  A    between atoms: _419  and  _420
REMARK  176  A    between atoms: _422  and  _424
REMARK  177  A    between atoms: _424  and  _425
REMARK  178  A    between atoms: _424  and  _427
REMARK  179  A    between atoms: _427  and  _428
REMARK  180  A    between atoms: _431  and  _433
REMARK  181  A    between atoms: _433  and  _434
REMARK  182  A    between atoms: _436  and  _438
REMARK  183  A    between atoms: _438  and  _439
REMARK  184  A    between atoms: _441  and  _443
REMARK  185  A    between atoms: _443  and  _444
REMARK  186  A    between atoms: _443  and  _446
REMARK  187  A    between atoms: _446  and  _447
REMARK  188  A    between atoms: _450  and  _452
REMARK  189  A    between atoms: _452  and  _453
REMARK  190  A    between atoms: _455  and  _457
REMARK  191  A    between atoms: _457  and  _458
REMARK  192  A    between atoms: _460  and  _462
REMARK  193  A    between atoms: _462  and  _463
REMARK  194  A    between atoms: _462  and  _465
REMARK  195  A    between atoms: _465  and  _466
REMARK  196  A    between atoms: _472  and  _474
REMARK  197  A    between atoms: _474  and  _475
REMARK  198  A    between atoms: _474  and  _477
REMARK  199  A    between atoms: _477  and  _478
REMARK  200  A    between atoms: _481  and  _483
REMARK  201  A    between atoms: _483  and  _484
REMARK  202  A    between atoms: _483  and  _486
REMARK  203  A    between atoms: _489  and  _491
REMARK  204  A    between atoms: _491  and  _492
REMARK  205  A    between atoms: _491  and  _494
REMARK  206  A    between atoms: _494  and  _495
REMARK  207  A    between atoms: _499  and  _500
REMARK  208  A    between atoms: _505  and  _507
REMARK  209  A    between atoms: _507  and  _508
REMARK  210  A    between atoms: _507  and  _510
REMARK  211  A    between atoms: _510  and  _511
REMARK  212  A    between atoms: _515  and  _516
REMARK  213  A    between atoms: _521  and  _523
REMARK  214  A    between atoms: _523  and  _524
REMARK  215  A    between atoms: _523  and  _526
REMARK  216  A    between atoms: _529  and  _531
REMARK  217  A    between atoms: _531  and  _532
REMARK  218  A    between atoms: _531  and  _534
REMARK  219  A    between atoms: _534  and  _535
REMARK  220  A    between atoms: _540  and  _542
REMARK  221  A    between atoms: _542  and  _543
REMARK  222  A    between atoms: _542  and  _545
REMARK  223  A    between atoms: _545  and  _546
REMARK  224  A    between atoms: _549  and  _551
REMARK  225  A    between atoms: _551  and  _552
REMARK  226  A    between atoms: _551  and  _554
REMARK  227  A    between atoms: _554  and  _555
REMARK  228  A    between atoms: _558  and  _560
REMARK  229  A    between atoms: _560  and  _561
REMARK  230  A    between atoms: _563  and  _565
REMARK  231  A    between atoms: _565  and  _566
REMARK  232  A    between atoms: _565  and  _568
REMARK  233  A    between atoms: _568  and  _569
REMARK  234  A    between atoms: _569  and  _570
REMARK  235  A    between atoms: _570  and  _571
REMARK  236  A    between atoms: _580  and  _582
REMARK  237  A    between atoms: _582  and  _583
REMARK  238  A    between atoms: _582  and  _585
REMARK  239  A    between atoms: _585  and  _586
REMARK                            x       y       z     vdW  Elec       q    Type
REMARK                         _______ _______ _______ _____ _____    ______ ____
ROOT
ATOM      1  CA  LEU A   1       4.156  28.355  12.564  0.00  0.00    +0.133 C 
ENDROOT
BRANCH   1   2
ATOM      2  N   LEU A   1       3.916  28.239  13.993  0.00  0.00    -0.239 NA
ATOM      3  H   LEU A   1       3.016  27.818  14.300  0.00  0.00    +0.142 HD
ENDBRANCH   1   2
BRANCH   1   4
ATOM      4  C   LEU A   1       3.590  29.635  11.999  0.00  0.00    +0.224 C 
ATOM      5  O   LEU A   1       2.446  29.954  12.328  0.00  0.00    -0.287 OA
ENDBRANCH   1   4
BRANCH   1   6
ATOM      6  CB  LEU A   1       3.537  27.132  11.852  0.00  0.00    +0.025 C 
BRANCH   6   7
ATOM      7  CG  LEU A   1       4.148  25.785  12.249  0.00  0.00    +0.002 C 
ATOM      8  CD2 LEU A   1       5.628  25.740  11.909  0.00  0.00    +0.000 C 
ATOM      9  CD1 LEU A   1       3.397  24.621  11.617  0.00  0.00    +0.000 C 
ENDBRANCH   6   7
ENDBRANCH   1   6
TORSDOF 4
REMARK  Name = ../refined-set-2016/2aod/2aod_pocket.pdb
REMARK  239 active torsions:
REMARK  status: ('A' for Active; 'I' for Inactive)
REMARK    1  A    between atoms: _1  and  _3
REMARK    2  A    between atoms: _3  and  _4
REMARK    3  A    between atoms: _3  and  _6
REMARK    4  A    between atoms: _6  and  _7
REMARK    5  A    between atoms: _7  and  _8
REMARK    6  A    between atoms: _8  and  _9
REMARK    7  A    between atoms: _18  and  _20
REMARK    8  A    between atoms: _20  and  _21
REMARK    9  A    between atoms: _20  and  _23
REMARK   10  A    between atoms: _23  and  _24
REMARK   11  A    between atoms: _27  and  _29
REMARK   12  A    between atoms: _29  and  _30
REMARK   13  A    between atoms: _29  and  _32
REMARK   14  A    between atoms: _32  and  _33
REMARK   15  A    between atoms: _33  and  _34
REMARK   16  A    between atoms: _37  and  _39
REMARK   17  A    between atoms: _39  and  _40
REMARK   18  A    between atoms: _39  and  _42
REMARK   19  A    between atoms: _42  and  _43
REMARK   20  A    between atoms: _46  and  _48
REMARK   21  A    between atoms: _48  and  _49
REMARK   22  A    between atoms: _48  and  _51
REMARK   23  A    between atoms: _51  and  _52
REMARK   24  A    between atoms: _55  and  _57
REMARK   25  A    between atoms: _57  and  _58
REMARK   26  A    between atoms: _57  and  _60
REMARK   27  A    between atoms: _60  and  _61
REMARK   28  A    between atoms: _64  and  _66
REMARK   29  A    between atoms: _66  and  _67
REMARK   30  A    between atoms: _69  and  _71
REMARK   31  A    between atoms: _71  and  _72
REMARK   32  A    between atoms: _75  and  _77
REMARK   33  A    between atoms: _77  and  _78
REMARK   34  A    between atoms: _77  and  _80
REMARK   35  A    between atoms: _80  and  _81
REMARK   36  A    between atoms: _84  and  _86
REMARK   37  A    between atoms: _86  and  _87
REMARK   38  A    between atoms: _86  and  _89
REMARK   39  A    between atoms: _89  and  _90
REMARK   40  A    between atoms: _93  and  _95
REMARK   41  A    between atoms: _95  and  _96
REMARK   42  A    between atoms: _95  and  _98
REMARK   43  A    between atoms: _98  and  _99
REMARK   44  A    between atoms: _102  and  _104
REMARK   45  A    between atoms: _104  and  _105
REMARK   46  A    between atoms: _104  and  _107
REMARK   47  A    between atoms: _110  and  _112
REMARK   48  A    between atoms: _112  and  _113
REMARK   49  A    between atoms: _112  and  _115
REMARK   50  A    between atoms: _115  and  _116
REMARK   51  A    between atoms: _116  and  _117
REMARK   52  A    between atoms: _117  and  _118
REMARK   53  A    between atoms: _118  and  _119
REMARK   54  A    between atoms: _123  and  _125
REMARK   55  A    between atoms: _125  and  _126
REMARK   56  A    between atoms: _125  and  _128
REMARK   57  A    between atoms: _128  and  _129
REMARK   58  A    between atoms: _129  and  _130
REMARK   59  A    between atoms: _132  and  _134
REMARK   60  A    between atoms: _134  and  _135
REMARK   61  A    between atoms: _134  and  _137
REMARK   62  A    between atoms: _137  and  _138
REMARK   63  A    between atoms: _141  and  _143
REMARK   64  A    between atoms: _143  and  _144
REMARK   65  A    between atoms: _146  and  _148
REMARK   66  A    between atoms: _148  and  _149
REMARK   67  A    between atoms: _151  and  _153
REMARK   68  A    between atoms: _153  and  _154
REMARK   69  A    between atoms: _153  and  _156
REMARK   70  A    between atoms: _156  and  _157
REMARK   71  A    between atoms: _160  and  _162
REMARK   72  A    between atoms: _162  and  _163
REMARK   73  A    between atoms: _165  and  _167
REMARK   74  A    between atoms: _167  and  _168
REMARK   75  A    between atoms: _170  and  _172
REMARK   76  A    between atoms: _172  and  _173
REMARK   77  A    between atoms: _172  and  _175
REMARK   78  A    between atoms: _175  and  _176
REMARK   79  A    between atoms: _182  and  _184
REMARK   80  A    between atoms: _184  and  _185
REMARK   81  A    between atoms: _184  and  _187
REMARK   82  A    between atoms: _187  and  _188
REMARK   83  A    between atoms: _191  and  _193
REMARK   84  A    between atoms: _193  and  _194
REMARK   85  A    between atoms: _193  and  _196
REMARK   86  A    between atoms: _199  and  _201
REMARK   87  A    between atoms: _201  and  _202
REMARK   88  A    between atoms: _201  and  _204
REMARK   89  A    between atoms: _204  and  _205
REMARK   90  A    between atoms: _209  and  _210
REMARK   91  A    between atoms: _215  and  _217
REMARK   92  A    between atoms: _217  and  _218
REMARK   93  A    between atoms: _217  and  _220
REMARK   94  A    between atoms: _220  and  _221
REMARK   95  A    between atoms: _225  and  _226
REMARK   96  A    between atoms: _231  and  _233
REMARK   97  A    between atoms: _233  and  _234
REMARK   98  A    between atoms: _233  and  _236
REMARK   99  A    between atoms: _239  and  _241
REMARK  100  A    between atoms: _241  and  _242
REMARK  101  A    between atoms: _241  and  _244
REMARK  102  A    between atoms: _244  and  _245
REMARK  103  A    between atoms: _250  and  _252
REMARK  104  A    between atoms: _252  and  _253
REMARK  105  A    between atoms: _252  and  _255
REMARK  106  A    between atoms: _255  and  _256
REMARK  107  A    between atoms: _259  and  _261
REMARK  108  A    between atoms: _261  and  _262
REMARK  109  A    between atoms: _261  and  _264
REMARK  110  A    between atoms: _264  and  _265
REMARK  111  A    between atoms: _268  and  _270
REMARK  112  A    between atoms: _270  and  _271
REMARK  113  A    between atoms: _273  and  _275
REMARK  114  A    between atoms: _275  and  _276
REMARK  115  A    between atoms: _275  and  _278
REMARK  116  A    between atoms: _278  and  _279
REMARK  117  A    between atoms: _279  and  _280
REMARK  118  A    between atoms: _280  and  _281
REMARK  119  A    between atoms: _290  and  _292
REMARK  120  A    between atoms: _292  and  _293
REMARK  121  A    between atoms: _292  and  _295
REMARK  122  A    between atoms: _295  and  _296
REMARK  123  A    between atoms: _301  and  _303
REMARK  124  A    between atoms: _303  and  _304
REMARK  125  A    between atoms: _303  and  _306
REMARK  126  A    between atoms: _306  and  _307
REMARK  127  A    between atoms: _307  and  _308
REMARK  128  A    between atoms: _308  and  _309
REMARK  129  A    between atoms: _318  and  _320
REMARK  130  A    between atoms: _320  and  _321
REMARK  131  A    between atoms: _320  and  _323
REMARK  132  A    between atoms: _323  and  _324
REMARK  133  A    between atoms: _327  and  _329
REMARK  134  A    between atoms: _329  and  _330
REMARK  135  A    between atoms: _329  and  _332
REMARK  136  A    between atoms: _332  and  _333
REMARK  137  A    between atoms: _336  and  _338
REMARK  138  A    between atoms: _338  and  _339
REMARK  139  A    between atoms: _338  and  _341
REMARK  140  A    between atoms: _341  and  _342
REMARK  141  A    between atoms: _345  and  _347
REMARK  142  A    between atoms: _347  and  _348
REMARK  143  A    between atoms: _347  and  _350
REMARK  144  A    between atoms: _350  and  _351
REMARK  145  A    between atoms: _354  and  _356
REMARK  146  A    between atoms: _356  and  _357
REMARK  147  A    between atoms: _359  and  _361
REMARK  148  A    between atoms: _361  and  _362
REMARK  149  A    between atoms: _365  and  _367
REMARK  150  A    between atoms: _367  and  _368
REMARK  151  A    between atoms: _367  and  _370
REMARK  152  A    between atoms: _370  and  _371
REMARK  153  A    between atoms: _374  and  _376
REMARK  154  A    between atoms: _376  and  _377
REMARK  155  A    between atoms: _376  and  _379
REMARK  156  A    between atoms: _379  and  _380
REMARK  157  A    between atoms: _383  and  _385
REMARK  158  A    between atoms: _385  and  _386
REMARK  159  A    between atoms: _385  and  _388
REMARK  160  A    between atoms: _388  and  _389
REMARK  161  A    between atoms: _392  and  _394
REMARK  162  A    between atoms: _394  and  _395
REMARK  163  A    between atoms: _394  and  _397
REMARK  164  A    between atoms: _400  and  _402
REMARK  165  A    between atoms: _402  and  _403
REMARK  166  A    between atoms: _402  and  _405
REMARK  167  A    between atoms: _405  and  _406
REMARK  168  A    between atoms: _406  and  _407
REMARK  169  A    between atoms: _407  and  _408
REMARK  170  A    between atoms: _408  and  _409
REMARK  171  A    between atoms: _413  and  _415
REMARK  172  A    between atoms: _415  and  _416
REMARK  173  A    between atoms: _415  and  _418
REMARK  174  A    between atoms: _418  and  _419
REMARK  175  A    between atoms: _419  and  _420
REMARK  176  A    between atoms: _422  and  _424
REMARK  177  A    between atoms: _424  and  _425
REMARK  178  A    between atoms: _424  and  _427
REMARK  179  A    between atoms: _427  and  _428
REMARK  180  A    between atoms: _431  and  _433
REMARK  181  A    between atoms: _433  and  _434
REMARK  182  A    between atoms: _436  and  _438
REMARK  183  A    between atoms: _438  and  _439
REMARK  184  A    between atoms: _441  and  _443
REMARK  185  A    between atoms: _443  and  _444
REMARK  186  A    between atoms: _443  and  _446
REMARK  187  A    between atoms: _446  and  _447
REMARK  188  A    between atoms: _450  and  _452
REMARK  189  A    between atoms: _452  and  _453
REMARK  190  A    between atoms: _455  and  _457
REMARK  191  A    between atoms: _457  and  _458
REMARK  192  A    between atoms: _460  and  _462
REMARK  193  A    between atoms: _462  and  _463
REMARK  194  A    between atoms: _462  and  _465
REMARK  195  A    between atoms: _465  and  _466
REMARK  196  A    between atoms: _472  and  _474
REMARK  197  A    between atoms: _474  and  _475
REMARK  198  A    between atoms: _474  and  _477
REMARK  199  A    between atoms: _477  and  _478
REMARK  200  A    between atoms: _481  and  _483
REMARK  201  A    between atoms: _483  and  _484
REMARK  202  A    between atoms: _483  and  _486
REMARK  203  A    between atoms: _489  and  _491
REMARK  204  A    between atoms: _491  and  _492
REMARK  205  A    between atoms: _491  and  _494
REMARK  206  A    between atoms: _494  and  _495
REMARK  207  A    between atoms: _499  and  _500
REMARK  208  A    between atoms: _505  and  _507
REMARK  209  A    between atoms: _507  and  _508
REMARK  210  A    between atoms: _507  and  _510
REMARK  211  A    between atoms: _510  and  _511
REMARK  212  A    between atoms: _515  and  _516
REMARK  213  A    between atoms: _521  and  _523
REMARK  214  A    between atoms: _523  and  _524
REMARK  215  A    between atoms: _523  and  _526
REMARK  216  A    between atoms: _529  and  _531
REMARK  217  A    between atoms: _531  and  _532
REMARK  218  A    between atoms: _531  and  _534
REMARK  219  A    between atoms: _534  and  _535
REMARK  220  A    between atoms: _540  and  _542
REMARK  221  A    between atoms: _542  and  _543
REMARK  222  A    between atoms: _542  and  _545
REMARK  223  A    between atoms: _545  and  _546
REMARK  224  A    between atoms: _549  and  _551
REMARK  225  A    between atoms: _551  and  _552
REMARK  226  A    between atoms: _551  and  _554
REMARK  227  A    between atoms: _554  and  _555
REMARK  228  A    between atoms: _558  and  _560
REMARK  229  A    between atoms: _560  and  _561
REMARK  230  A    between atoms: _563  and  _565
REMARK  231  A    between atoms: _565  and  _566
REMARK  232  A    between atoms: _565  and  _568
REMARK  233  A    between atoms: _568  and  _569
REMARK  234  A    between atoms: _569  and  _570
REMARK  235  A    between atoms: _570  and  _571
REMARK  236  A    between atoms: _580  and  _582
REMARK  237  A    between atoms: _582  and  _583
REMARK  238  A    between atoms: _582  and  _585
REMARK  239  A    between atoms: _585  and  _586
REMARK                            x       y       z     vdW  Elec       q    Type
REMARK                         _______ _______ _______ _____ _____    ______ ____
ROOT
ATOM      1  CA  GLU A   1       5.987  28.391   6.303  0.00  0.00    +0.134 C 
ENDROOT
BRANCH   1   2
ATOM      2  N   GLU A   1       6.353  28.577   4.914  0.00  0.00    -0.239 NA
ATOM      3  H   GLU A   1       6.538  27.736   4.331  0.00  0.00    +0.142 HD
ENDBRANCH   1   2
BRANCH   1   4
ATOM      4  C   GLU A   1       7.233  28.251   7.171  0.00  0.00    +0.224 C 
ATOM      5  O   GLU A   1       8.131  27.573   6.716  0.00  0.00    -0.287 OA
ENDBRANCH   1   4
BRANCH   1   6
ATOM      6  CB  GLU A   1       5.145  27.132   6.435  0.00  0.00    +0.037 C 
BRANCH   6   7
ATOM      7  CG  GLU A   1       4.627  26.777   7.801  0.00  0.00    +0.116 C 
BRANCH   7   8
ATOM      8  CD  GLU A   1       3.832  25.489   7.840  0.00  0.00    +0.365 C 
ATOM      9  OE2 GLU A   1       4.456  24.397   7.903  0.00  0.00    -0.246 OA
ATOM     10  OE1 GLU A   1       2.593  25.576   7.837  0.00  0.00    -0.246 OA
ENDBRANCH   7   8
ENDBRANCH   6   7
ENDBRANCH   1   6
TORSDOF 5
REMARK  Name = ../refined-set-2016/2aod/2aod_pocket.pdb
REMARK  239 active torsions:
REMARK  status: ('A' for Active; 'I' for Inactive)
REMARK    1  A    between atoms: _1  and  _3
REMARK    2  A    between atoms: _3  and  _4
REMARK    3  A    between atoms: _3  and  _6
REMARK    4  A    between atoms: _6  and  _7
REMARK    5  A    between atoms: _7  and  _8
REMARK    6  A    between atoms: _8  and  _9
REMARK    7  A    between atoms: _18  and  _20
REMARK    8  A    between atoms: _20  and  _21
REMARK    9  A    between atoms: _20  and  _23
REMARK   10  A    between atoms: _23  and  _24
REMARK   11  A    between atoms: _27  and  _29
REMARK   12  A    between atoms: _29  and  _30
REMARK   13  A    between atoms: _29  and  _32
REMARK   14  A    between atoms: _32  and  _33
REMARK   15  A    between atoms: _33  and  _34
REMARK   16  A    between atoms: _37  and  _39
REMARK   17  A    between atoms: _39  and  _40
REMARK   18  A    between atoms: _39  and  _42
REMARK   19  A    between atoms: _42  and  _43
REMARK   20  A    between atoms: _46  and  _48
REMARK   21  A    between atoms: _48  and  _49
REMARK   22  A    between atoms: _48  and  _51
REMARK   23  A    between atoms: _51  and  _52
REMARK   24  A    between atoms: _55  and  _57
REMARK   25  A    between atoms: _57  and  _58
REMARK   26  A    between atoms: _57  and  _60
REMARK   27  A    between atoms: _60  and  _61
REMARK   28  A    between atoms: _64  and  _66
REMARK   29  A    between atoms: _66  and  _67
REMARK   30  A    between atoms: _69  and  _71
REMARK   31  A    between atoms: _71  and  _72
REMARK   32  A    between atoms: _75  and  _77
REMARK   33  A    between atoms: _77  and  _78
REMARK   34  A    between atoms: _77  and  _80
REMARK   35  A    between atoms: _80  and  _81
REMARK   36  A    between atoms: _84  and  _86
REMARK   37  A    between atoms: _86  and  _87
REMARK   38  A    between atoms: _86  and  _89
REMARK   39  A    between atoms: _89  and  _90
REMARK   40  A    between atoms: _93  and  _95
REMARK   41  A    between atoms: _95  and  _96
REMARK   42  A    between atoms: _95  and  _98
REMARK   43  A    between atoms: _98  and  _99
REMARK   44  A    between atoms: _102  and  _104
REMARK   45  A    between atoms: _104  and  _105
REMARK   46  A    between atoms: _104  and  _107
REMARK   47  A    between atoms: _110  and  _112
REMARK   48  A    between atoms: _112  and  _113
REMARK   49  A    between atoms: _112  and  _115
REMARK   50  A    between atoms: _115  and  _116
REMARK   51  A    between atoms: _116  and  _117
REMARK   52  A    between atoms: _117  and  _118
REMARK   53  A    between atoms: _118  and  _119
REMARK   54  A    between atoms: _123  and  _125
REMARK   55  A    between atoms: _125  and  _126
REMARK   56  A    between atoms: _125  and  _128
REMARK   57  A    between atoms: _128  and  _129
REMARK   58  A    between atoms: _129  and  _130
REMARK   59  A    between atoms: _132  and  _134
REMARK   60  A    between atoms: _134  and  _135
REMARK   61  A    between atoms: _134  and  _137
REMARK   62  A    between atoms: _137  and  _138
REMARK   63  A    between atoms: _141  and  _143
REMARK   64  A    between atoms: _143  and  _144
REMARK   65  A    between atoms: _146  and  _148
REMARK   66  A    between atoms: _148  and  _149
REMARK   67  A    between atoms: _151  and  _153
REMARK   68  A    between atoms: _153  and  _154
REMARK   69  A    between atoms: _153  and  _156
REMARK   70  A    between atoms: _156  and  _157
REMARK   71  A    between atoms: _160  and  _162
REMARK   72  A    between atoms: _162  and  _163
REMARK   73  A    between atoms: _165  and  _167
REMARK   74  A    between atoms: _167  and  _168
REMARK   75  A    between atoms: _170  and  _172
REMARK   76  A    between atoms: _172  and  _173
REMARK   77  A    between atoms: _172  and  _175
REMARK   78  A    between atoms: _175  and  _176
REMARK   79  A    between atoms: _182  and  _184
REMARK   80  A    between atoms: _184  and  _185
REMARK   81  A    between atoms: _184  and  _187
REMARK   82  A    between atoms: _187  and  _188
REMARK   83  A    between atoms: _191  and  _193
REMARK   84  A    between atoms: _193  and  _194
REMARK   85  A    between atoms: _193  and  _196
REMARK   86  A    between atoms: _199  and  _201
REMARK   87  A    between atoms: _201  and  _202
REMARK   88  A    between atoms: _201  and  _204
REMARK   89  A    between atoms: _204  and  _205
REMARK   90  A    between atoms: _209  and  _210
REMARK   91  A    between atoms: _215  and  _217
REMARK   92  A    between atoms: _217  and  _218
REMARK   93  A    between atoms: _217  and  _220
REMARK   94  A    between atoms: _220  and  _221
REMARK   95  A    between atoms: _225  and  _226
REMARK   96  A    between atoms: _231  and  _233
REMARK   97  A    between atoms: _233  and  _234
REMARK   98  A    between atoms: _233  and  _236
REMARK   99  A    between atoms: _239  and  _241
REMARK  100  A    between atoms: _241  and  _242
REMARK  101  A    between atoms: _241  and  _244
REMARK  102  A    between atoms: _244  and  _245
REMARK  103  A    between atoms: _250  and  _252
REMARK  104  A    between atoms: _252  and  _253
REMARK  105  A    between atoms: _252  and  _255
REMARK  106  A    between atoms: _255  and  _256
REMARK  107  A    between atoms: _259  and  _261
REMARK  108  A    between atoms: _261  and  _262
REMARK  109  A    between atoms: _261  and  _264
REMARK  110  A    between atoms: _264  and  _265
REMARK  111  A    between atoms: _268  and  _270
REMARK  112  A    between atoms: _270  and  _271
REMARK  113  A    between atoms: _273  and  _275
REMARK  114  A    between atoms: _275  and  _276
REMARK  115  A    between atoms: _275  and  _278
REMARK  116  A    between atoms: _278  and  _279
REMARK  117  A    between atoms: _279  and  _280
REMARK  118  A    between atoms: _280  and  _281
REMARK  119  A    between atoms: _290  and  _292
REMARK  120  A    between atoms: _292  and  _293
REMARK  121  A    between atoms: _292  and  _295
REMARK  122  A    between atoms: _295  and  _296
REMARK  123  A    between atoms: _301  and  _303
REMARK  124  A    between atoms: _303  and  _304
REMARK  125  A    between atoms: _303  and  _306
REMARK  126  A    between atoms: _306  and  _307
REMARK  127  A    between atoms: _307  and  _308
REMARK  128  A    between atoms: _308  and  _309
REMARK  129  A    between atoms: _318  and  _320
REMARK  130  A    between atoms: _320  and  _321
REMARK  131  A    between atoms: _320  and  _323
REMARK  132  A    between atoms: _323  and  _324
REMARK  133  A    between atoms: _327  and  _329
REMARK  134  A    between atoms: _329  and  _330
REMARK  135  A    between atoms: _329  and  _332
REMARK  136  A    between atoms: _332  and  _333
REMARK  137  A    between atoms: _336  and  _338
REMARK  138  A    between atoms: _338  and  _339
REMARK  139  A    between atoms: _338  and  _341
REMARK  140  A    between atoms: _341  and  _342
REMARK  141  A    between atoms: _345  and  _347
REMARK  142  A    between atoms: _347  and  _348
REMARK  143  A    between atoms: _347  and  _350
REMARK  144  A    between atoms: _350  and  _351
REMARK  145  A    between atoms: _354  and  _356
REMARK  146  A    between atoms: _356  and  _357
REMARK  147  A    between atoms: _359  and  _361
REMARK  148  A    between atoms: _361  and  _362
REMARK  149  A    between atoms: _365  and  _367
REMARK  150  A    between atoms: _367  and  _368
REMARK  151  A    between atoms: _367  and  _370
REMARK  152  A    between atoms: _370  and  _371
REMARK  153  A    between atoms: _374  and  _376
REMARK  154  A    between atoms: _376  and  _377
REMARK  155  A    between atoms: _376  and  _379
REMARK  156  A    between atoms: _379  and  _380
REMARK  157  A    between atoms: _383  and  _385
REMARK  158  A    between atoms: _385  and  _386
REMARK  159  A    between atoms: _385  and  _388
REMARK  160  A    between atoms: _388  and  _389
REMARK  161  A    between atoms: _392  and  _394
REMARK  162  A    between atoms: _394  and  _395
REMARK  163  A    between atoms: _394  and  _397
REMARK  164  A    between atoms: _400  and  _402
REMARK  165  A    between atoms: _402  and  _403
REMARK  166  A    between atoms: _402  and  _405
REMARK  167  A    between atoms: _405  and  _406
REMARK  168  A    between atoms: _406  and  _407
REMARK  169  A    between atoms: _407  and  _408
REMARK  170  A    between atoms: _408  and  _409
REMARK  171  A    between atoms: _413  and  _415
REMARK  172  A    between atoms: _415  and  _416
REMARK  173  A    between atoms: _415  and  _418
REMARK  174  A    between atoms: _418  and  _419
REMARK  175  A    between atoms: _419  and  _420
REMARK  176  A    between atoms: _422  and  _424
REMARK  177  A    between atoms: _424  and  _425
REMARK  178  A    between atoms: _424  and  _427
REMARK  179  A    between atoms: _427  and  _428
REMARK  180  A    between atoms: _431  and  _433
REMARK  181  A    between atoms: _433  and  _434
REMARK  182  A    between atoms: _436  and  _438
REMARK  183  A    between atoms: _438  and  _439
REMARK  184  A    between atoms: _441  and  _443
REMARK  185  A    between atoms: _443  and  _444
REMARK  186  A    between atoms: _443  and  _446
REMARK  187  A    between atoms: _446  and  _447
REMARK  188  A    between atoms: _450  and  _452
REMARK  189  A    between atoms: _452  and  _453
REMARK  190  A    between atoms: _455  and  _457
REMARK  191  A    between atoms: _457  and  _458
REMARK  192  A    between atoms: _460  and  _462
REMARK  193  A    between atoms: _462  and  _463
REMARK  194  A    between atoms: _462  and  _465
REMARK  195  A    between atoms: _465  and  _466
REMARK  196  A    between atoms: _472  and  _474
REMARK  197  A    between atoms: _474  and  _475
REMARK  198  A    between atoms: _474  and  _477
REMARK  199  A    between atoms: _477  and  _478
REMARK  200  A    between atoms: _481  and  _483
REMARK  201  A    between atoms: _483  and  _484
REMARK  202  A    between atoms: _483  and  _486
REMARK  203  A    between atoms: _489  and  _491
REMARK  204  A    between atoms: _491  and  _492
REMARK  205  A    between atoms: _491  and  _494
REMARK  206  A    between atoms: _494  and  _495
REMARK  207  A    between atoms: _499  and  _500
REMARK  208  A    between atoms: _505  and  _507
REMARK  209  A    between atoms: _507  and  _508
REMARK  210  A    between atoms: _507  and  _510
REMARK  211  A    between atoms: _510  and  _511
REMARK  212  A    between atoms: _515  and  _516
REMARK  213  A    between atoms: _521  and  _523
REMARK  214  A    between atoms: _523  and  _524
REMARK  215  A    between atoms: _523  and  _526
REMARK  216  A    between atoms: _529  and  _531
REMARK  217  A    between atoms: _531  and  _532
REMARK  218  A    between atoms: _531  and  _534
REMARK  219  A    between atoms: _534  and  _535
REMARK  220  A    between atoms: _540  and  _542
REMARK  221  A    between atoms: _542  and  _543
REMARK  222  A    between atoms: _542  and  _545
REMARK  223  A    between atoms: _545  and  _546
REMARK  224  A    between atoms: _549  and  _551
REMARK  225  A    between atoms: _551  and  _552
REMARK  226  A    between atoms: _551  and  _554
REMARK  227  A    between atoms: _554  and  _555
REMARK  228  A    between atoms: _558  and  _560
REMARK  229  A    between atoms: _560  and  _561
REMARK  230  A    between atoms: _563  and  _565
REMARK  231  A    between atoms: _565  and  _566
REMARK  232  A    between atoms: _565  and  _568
REMARK  233  A    between atoms: _568  and  _569
REMARK  234  A    between atoms: _569  and  _570
REMARK  235  A    between atoms: _570  and  _571
REMARK  236  A    between atoms: _580  and  _582
REMARK  237  A    between atoms: _582  and  _583
REMARK  238  A    between atoms: _582  and  _585
REMARK  239  A    between atoms: _585  and  _586
REMARK                            x       y       z     vdW  Elec       q    Type
REMARK                         _______ _______ _______ _____ _____    ______ ____
ROOT
ATOM      1  CA  LEU A   1       8.760  27.935  12.886  0.00  0.00    +0.133 C 
ENDROOT
BRANCH   1   2
ATOM      2  N   LEU A   1       8.873  28.119  11.467  0.00  0.00    -0.239 NA
ATOM      3  H   LEU A   1       9.719  27.719  11.013  0.00  0.00    +0.142 HD
ENDBRANCH   1   2
BRANCH   1   4
ATOM      4  C   LEU A   1       9.435  29.051  13.651  0.00  0.00    +0.224 C 
ATOM      5  O   LEU A   1      10.627  29.295  13.437  0.00  0.00    -0.287 OA
ENDBRANCH   1   4
BRANCH   1   6
ATOM      6  CB  LEU A   1       9.409  26.581  13.239  0.00  0.00    +0.025 C 
BRANCH   6   7
ATOM      7  CG  LEU A   1       9.312  26.107  14.683  0.00  0.00    +0.002 C 
ATOM      8  CD2 LEU A   1       7.889  25.771  15.067  0.00  0.00    +0.000 C 
ATOM      9  CD1 LEU A   1      10.212  24.880  14.876  0.00  0.00    +0.000 C 
ENDBRANCH   6   7
ENDBRANCH   1   6
TORSDOF 4
REMARK  Name = ../refined-set-2016/2aod/2aod_pocket.pdb
REMARK  239 active torsions:
REMARK  status: ('A' for Active; 'I' for Inactive)
REMARK    1  A    between atoms: _1  and  _3
REMARK    2  A    between atoms: _3  and  _4
REMARK    3  A    between atoms: _3  and  _6
REMARK    4  A    between atoms: _6  and  _7
REMARK    5  A    between atoms: _7  and  _8
REMARK    6  A    between atoms: _8  and  _9
REMARK    7  A    between atoms: _18  and  _20
REMARK    8  A    between atoms: _20  and  _21
REMARK    9  A    between atoms: _20  and  _23
REMARK   10  A    between atoms: _23  and  _24
REMARK   11  A    between atoms: _27  and  _29
REMARK   12  A    between atoms: _29  and  _30
REMARK   13  A    between atoms: _29  and  _32
REMARK   14  A    between atoms: _32  and  _33
REMARK   15  A    between atoms: _33  and  _34
REMARK   16  A    between atoms: _37  and  _39
REMARK   17  A    between atoms: _39  and  _40
REMARK   18  A    between atoms: _39  and  _42
REMARK   19  A    between atoms: _42  and  _43
REMARK   20  A    between atoms: _46  and  _48
REMARK   21  A    between atoms: _48  and  _49
REMARK   22  A    between atoms: _48  and  _51
REMARK   23  A    between atoms: _51  and  _52
REMARK   24  A    between atoms: _55  and  _57
REMARK   25  A    between atoms: _57  and  _58
REMARK   26  A    between atoms: _57  and  _60
REMARK   27  A    between atoms: _60  and  _61
REMARK   28  A    between atoms: _64  and  _66
REMARK   29  A    between atoms: _66  and  _67
REMARK   30  A    between atoms: _69  and  _71
REMARK   31  A    between atoms: _71  and  _72
REMARK   32  A    between atoms: _75  and  _77
REMARK   33  A    between atoms: _77  and  _78
REMARK   34  A    between atoms: _77  and  _80
REMARK   35  A    between atoms: _80  and  _81
REMARK   36  A    between atoms: _84  and  _86
REMARK   37  A    between atoms: _86  and  _87
REMARK   38  A    between atoms: _86  and  _89
REMARK   39  A    between atoms: _89  and  _90
REMARK   40  A    between atoms: _93  and  _95
REMARK   41  A    between atoms: _95  and  _96
REMARK   42  A    between atoms: _95  and  _98
REMARK   43  A    between atoms: _98  and  _99
REMARK   44  A    between atoms: _102  and  _104
REMARK   45  A    between atoms: _104  and  _105
REMARK   46  A    between atoms: _104  and  _107
REMARK   47  A    between atoms: _110  and  _112
REMARK   48  A    between atoms: _112  and  _113
REMARK   49  A    between atoms: _112  and  _115
REMARK   50  A    between atoms: _115  and  _116
REMARK   51  A    between atoms: _116  and  _117
REMARK   52  A    between atoms: _117  and  _118
REMARK   53  A    between atoms: _118  and  _119
REMARK   54  A    between atoms: _123  and  _125
REMARK   55  A    between atoms: _125  and  _126
REMARK   56  A    between atoms: _125  and  _128
REMARK   57  A    between atoms: _128  and  _129
REMARK   58  A    between atoms: _129  and  _130
REMARK   59  A    between atoms: _132  and  _134
REMARK   60  A    between atoms: _134  and  _135
REMARK   61  A    between atoms: _134  and  _137
REMARK   62  A    between atoms: _137  and  _138
REMARK   63  A    between atoms: _141  and  _143
REMARK   64  A    between atoms: _143  and  _144
REMARK   65  A    between atoms: _146  and  _148
REMARK   66  A    between atoms: _148  and  _149
REMARK   67  A    between atoms: _151  and  _153
REMARK   68  A    between atoms: _153  and  _154
REMARK   69  A    between atoms: _153  and  _156
REMARK   70  A    between atoms: _156  and  _157
REMARK   71  A    between atoms: _160  and  _162
REMARK   72  A    between atoms: _162  and  _163
REMARK   73  A    between atoms: _165  and  _167
REMARK   74  A    between atoms: _167  and  _168
REMARK   75  A    between atoms: _170  and  _172
REMARK   76  A    between atoms: _172  and  _173
REMARK   77  A    between atoms: _172  and  _175
REMARK   78  A    between atoms: _175  and  _176
REMARK   79  A    between atoms: _182  and  _184
REMARK   80  A    between atoms: _184  and  _185
REMARK   81  A    between atoms: _184  and  _187
REMARK   82  A    between atoms: _187  and  _188
REMARK   83  A    between atoms: _191  and  _193
REMARK   84  A    between atoms: _193  and  _194
REMARK   85  A    between atoms: _193  and  _196
REMARK   86  A    between atoms: _199  and  _201
REMARK   87  A    between atoms: _201  and  _202
REMARK   88  A    between atoms: _201  and  _204
REMARK   89  A    between atoms: _204  and  _205
REMARK   90  A    between atoms: _209  and  _210
REMARK   91  A    between atoms: _215  and  _217
REMARK   92  A    between atoms: _217  and  _218
REMARK   93  A    between atoms: _217  and  _220
REMARK   94  A    between atoms: _220  and  _221
REMARK   95  A    between atoms: _225  and  _226
REMARK   96  A    between atoms: _231  and  _233
REMARK   97  A    between atoms: _233  and  _234
REMARK   98  A    between atoms: _233  and  _236
REMARK   99  A    between atoms: _239  and  _241
REMARK  100  A    between atoms: _241  and  _242
REMARK  101  A    between atoms: _241  and  _244
REMARK  102  A    between atoms: _244  and  _245
REMARK  103  A    between atoms: _250  and  _252
REMARK  104  A    between atoms: _252  and  _253
REMARK  105  A    between atoms: _252  and  _255
REMARK  106  A    between atoms: _255  and  _256
REMARK  107  A    between atoms: _259  and  _261
REMARK  108  A    between atoms: _261  and  _262
REMARK  109  A    between atoms: _261  and  _264
REMARK  110  A    between atoms: _264  and  _265
REMARK  111  A    between atoms: _268  and  _270
REMARK  112  A    between atoms: _270  and  _271
REMARK  113  A    between atoms: _273  and  _275
REMARK  114  A    between atoms: _275  and  _276
REMARK  115  A    between atoms: _275  and  _278
REMARK  116  A    between atoms: _278  and  _279
REMARK  117  A    between atoms: _279  and  _280
REMARK  118  A    between atoms: _280  and  _281
REMARK  119  A    between atoms: _290  and  _292
REMARK  120  A    between atoms: _292  and  _293
REMARK  121  A    between atoms: _292  and  _295
REMARK  122  A    between atoms: _295  and  _296
REMARK  123  A    between atoms: _301  and  _303
REMARK  124  A    between atoms: _303  and  _304
REMARK  125  A    between atoms: _303  and  _306
REMARK  126  A    between atoms: _306  and  _307
REMARK  127  A    between atoms: _307  and  _308
REMARK  128  A    between atoms: _308  and  _309
REMARK  129  A    between atoms: _318  and  _320
REMARK  130  A    between atoms: _320  and  _321
REMARK  131  A    between atoms: _320  and  _323
REMARK  132  A    between atoms: _323  and  _324
REMARK  133  A    between atoms: _327  and  _329
REMARK  134  A    between atoms: _329  and  _330
REMARK  135  A    between atoms: _329  and  _332
REMARK  136  A    between atoms: _332  and  _333
REMARK  137  A    between atoms: _336  and  _338
REMARK  138  A    between atoms: _338  and  _339
REMARK  139  A    between atoms: _338  and  _341
REMARK  140  A    between atoms: _341  and  _342
REMARK  141  A    between atoms: _345  and  _347
REMARK  142  A    between atoms: _347  and  _348
REMARK  143  A    between atoms: _347  and  _350
REMARK  144  A    between atoms: _350  and  _351
REMARK  145  A    between atoms: _354  and  _356
REMARK  146  A    between atoms: _356  and  _357
REMARK  147  A    between atoms: _359  and  _361
REMARK  148  A    between atoms: _361  and  _362
REMARK  149  A    between atoms: _365  and  _367
REMARK  150  A    between atoms: _367  and  _368
REMARK  151  A    between atoms: _367  and  _370
REMARK  152  A    between atoms: _370  and  _371
REMARK  153  A    between atoms: _374  and  _376
REMARK  154  A    between atoms: _376  and  _377
REMARK  155  A    between atoms: _376  and  _379
REMARK  156  A    between atoms: _379  and  _380
REMARK  157  A    between atoms: _383  and  _385
REMARK  158  A    between atoms: _385  and  _386
REMARK  159  A    between atoms: _385  and  _388
REMARK  160  A    between atoms: _388  and  _389
REMARK  161  A    between atoms: _392  and  _394
REMARK  162  A    between atoms: _394  and  _395
REMARK  163  A    between atoms: _394  and  _397
REMARK  164  A    between atoms: _400  and  _402
REMARK  165  A    between atoms: _402  and  _403
REMARK  166  A    between atoms: _402  and  _405
REMARK  167  A    between atoms: _405  and  _406
REMARK  168  A    between atoms: _406  and  _407
REMARK  169  A    between atoms: _407  and  _408
REMARK  170  A    between atoms: _408  and  _409
REMARK  171  A    between atoms: _413  and  _415
REMARK  172  A    between atoms: _415  and  _416
REMARK  173  A    between atoms: _415  and  _418
REMARK  174  A    between atoms: _418  and  _419
REMARK  175  A    between atoms: _419  and  _420
REMARK  176  A    between atoms: _422  and  _424
REMARK  177  A    between atoms: _424  and  _425
REMARK  178  A    between atoms: _424  and  _427
REMARK  179  A    between atoms: _427  and  _428
REMARK  180  A    between atoms: _431  and  _433
REMARK  181  A    between atoms: _433  and  _434
REMARK  182  A    between atoms: _436  and  _438
REMARK  183  A    between atoms: _438  and  _439
REMARK  184  A    between atoms: _441  and  _443
REMARK  185  A    between atoms: _443  and  _444
REMARK  186  A    between atoms: _443  and  _446
REMARK  187  A    between atoms: _446  and  _447
REMARK  188  A    between atoms: _450  and  _452
REMARK  189  A    between atoms: _452  and  _453
REMARK  190  A    between atoms: _455  and  _457
REMARK  191  A    between atoms: _457  and  _458
REMARK  192  A    between atoms: _460  and  _462
REMARK  193  A    between atoms: _462  and  _463
REMARK  194  A    between atoms: _462  and  _465
REMARK  195  A    between atoms: _465  and  _466
REMARK  196  A    between atoms: _472  and  _474
REMARK  197  A    between atoms: _474  and  _475
REMARK  198  A    between atoms: _474  and  _477
REMARK  199  A    between atoms: _477  and  _478
REMARK  200  A    between atoms: _481  and  _483
REMARK  201  A    between atoms: _483  and  _484
REMARK  202  A    between atoms: _483  and  _486
REMARK  203  A    between atoms: _489  and  _491
REMARK  204  A    between atoms: _491  and  _492
REMARK  205  A    between atoms: _491  and  _494
REMARK  206  A    between atoms: _494  and  _495
REMARK  207  A    between atoms: _499  and  _500
REMARK  208  A    between atoms: _505  and  _507
REMARK  209  A    between atoms: _507  and  _508
REMARK  210  A    between atoms: _507  and  _510
REMARK  211  A    between atoms: _510  and  _511
REMARK  212  A    between atoms: _515  and  _516
REMARK  213  A    between atoms: _521  and  _523
REMARK  214  A    between atoms: _523  and  _524
REMARK  215  A    between atoms: _523  and  _526
REMARK  216  A    between atoms: _529  and  _531
REMARK  217  A    between atoms: _531  and  _532
REMARK  218  A    between atoms: _531  and  _534
REMARK  219  A    between atoms: _534  and  _535
REMARK  220  A    between atoms: _540  and  _542
REMARK  221  A    between atoms: _542  and  _543
REMARK  222  A    between atoms: _542  and  _545
REMARK  223  A    between atoms: _545  and  _546
REMARK  224  A    between atoms: _549  and  _551
REMARK  225  A    between atoms: _551  and  _552
REMARK  226  A    between atoms: _551  and  _554
REMARK  227  A    between atoms: _554  and  _555
REMARK  228  A    between atoms: _558  and  _560
REMARK  229  A    between atoms: _560  and  _561
REMARK  230  A    between atoms: _563  and  _565
REMARK  231  A    between atoms: _565  and  _566
REMARK  232  A    between atoms: _565  and  _568
REMARK  233  A    between atoms: _568  and  _569
REMARK  234  A    between atoms: _569  and  _570
REMARK  235  A    between atoms: _570  and  _571
REMARK  236  A    between atoms: _580  and  _582
REMARK  237  A    between atoms: _582  and  _583
REMARK  238  A    between atoms: _582  and  _585
REMARK  239  A    between atoms: _585  and  _586
REMARK                            x       y       z     vdW  Elec       q    Type
REMARK                         _______ _______ _______ _____ _____    ______ ____
ROOT
ATOM      1  CA  ASP A   5      20.432  31.546  17.438  0.00  0.00    +0.160 C 
ENDROOT
BRANCH   1   2
ATOM      2  C   ASP A   5      20.202  32.232  16.081  0.00  0.00    +0.241 C 
ATOM      3  O   ASP A   5      20.199  33.465  15.969  0.00  0.00    -0.273 OA
ATOM      4  N   ASP A   6      20.099  31.397  15.050  0.00  0.00    -0.297 N 
ATOM      5  H   ASP A   6      20.015  30.381  15.257  0.00  0.00    +0.150 HD
BRANCH   4   6
ATOM      6  CA  ASP A   6      20.095  31.801  13.663  0.00  0.00    +0.160 C 
BRANCH   6   7
ATOM      7  C   ASP A   6      18.811  31.365  12.946  0.00  0.00    +0.241 C 
ATOM      8  O   ASP A   6      18.101  30.501  13.428  0.00  0.00    -0.273 OA
ATOM      9  N   THR A   7      18.568  31.966  11.796  0.00  0.00    -0.295 N 
ATOM     10  H   THR A   7      19.223  32.718  11.501  0.00  0.00    +0.150 HD
BRANCH   9  11
ATOM     11  CA  THR A   7      17.466  31.663  10.917  0.00  0.00    +0.176 C 
BRANCH  11  12
ATOM     12  C   THR A   7      17.966  30.726   9.812  0.00  0.00    +0.243 C 
ATOM     13  N   VAL A   8      17.250  29.624   9.637  0.00  0.00    -0.298 N 
ATOM     14  H   VAL A   8      16.370  29.518  10.181  0.00  0.00    +0.150 HD
ATOM     15  O   THR A   7      19.003  31.025   9.182  0.00  0.00    -0.273 OA
BRANCH  13  16
ATOM     16  CA  VAL A   8      17.630  28.552   8.723  0.00  0.00    +0.137 C 
BRANCH  16  17
ATOM     17  CB  VAL A   8      18.132  27.295   9.467  0.00  0.00    +0.026 C 
ATOM     18  CG2 VAL A   8      18.988  27.717  10.680  0.00  0.00    +0.002 C 
ATOM     19  CG1 VAL A   8      18.888  26.420   8.475  0.00  0.00    +0.002 C 
ENDBRANCH  16  17
BRANCH  16  20
ATOM     20  C   VAL A   8      16.462  28.180   7.826  0.00  0.00    +0.227 C 
ATOM     21  O   VAL A   8      15.394  27.800   8.291  0.00  0.00    -0.286 OA
ENDBRANCH  16  20
ENDBRANCH  13  16
ENDBRANCH  11  12
BRANCH  11  22
ATOM     22  CB  THR A   7      16.906  32.981  10.354  0.00  0.00    +0.137 C 
ATOM     23  CG2 THR A   7      15.854  32.789   9.286  0.00  0.00    +0.034 C 
BRANCH  22  24
ATOM     24  OG1 THR A   7      16.338  33.716  11.457  0.00  0.00    -0.382 OA
ATOM     25  HG1 THR A   7      17.042  33.897  12.129  0.00  0.00    +0.210 HD
ENDBRANCH  22  24
ENDBRANCH  11  22
ENDBRANCH   9  11
ENDBRANCH   6   7
BRANCH   6  26
ATOM     26  CB  ASP A   6      21.264  31.128  12.947  0.00  0.00    +0.143 C 
BRANCH  26  27
ATOM     27  CG  ASP A   6      22.632  31.327  13.541  0.00  0.00    +0.367 C 
ATOM     28  OD2 ASP A   6      22.907  32.448  14.046  0.00  0.00    -0.246 OA
ATOM     29  OD1 ASP A   6      23.477  30.413  13.504  0.00  0.00    -0.246 OA
ENDBRANCH  26  27
ENDBRANCH   6  26
ENDBRANCH   4   6
ENDBRANCH   1   2
BRANCH   1  31
ATOM     30  C   ALA A   4      18.338  30.335  17.555  0.00  0.00    +0.241 C 
ATOM     31  N   ASP A   5      19.694  30.290  17.534  0.00  0.00    -0.297 N 
ATOM     32  H   ASP A   5      20.196  29.381  17.585  0.00  0.00    +0.150 HD
ATOM     33  O   ALA A   4      17.701  31.373  17.533  0.00  0.00    -0.273 OA
BRANCH  30  34
ATOM     34  CA  ALA A   4      17.661  28.969  17.573  0.00  0.00    +0.149 C 
ATOM     35  CB  ALA A   4      16.915  28.784  16.261  0.00  0.00    +0.031 C 
BRANCH  34  38
ATOM     36  C   GLY A   3      16.991  28.065  19.744  0.00  0.00    +0.243 C 
ATOM     37  O   GLY A   3      18.015  27.357  19.819  0.00  0.00    -0.273 OA
ATOM     38  N   ALA A   4      16.750  28.848  18.693  0.00  0.00    -0.297 N 
ATOM     39  H   ALA A   4      15.867  29.398  18.676  0.00  0.00    +0.150 HD
BRANCH  36  40
ATOM     40  CA  GLY A   3      15.983  28.106  20.871  0.00  0.00    +0.176 C 
BRANCH  40  43
ATOM     41  C   THR A   2      14.759  30.216  20.930  0.00  0.00    +0.243 C 
ATOM     42  O   THR A   2      15.683  30.804  21.464  0.00  0.00    -0.273 OA
ATOM     43  N   GLY A   3      14.807  28.909  20.646  0.00  0.00    -0.295 N 
ATOM     44  H   GLY A   3      13.961  28.454  20.247  0.00  0.00    +0.150 HD
BRANCH  41  45
ATOM     45  CA  THR A   2      13.480  30.974  20.557  0.00  0.00    +0.176 C 
BRANCH  45  47
ATOM     46  C   ASP A   1      13.103  29.991  18.375  0.00  0.00    +0.239 C 
ATOM     47  N   THR A   2      12.654  30.246  19.602  0.00  0.00    -0.295 N 
ATOM     48  H   THR A   2      11.706  29.923  19.882  0.00  0.00    +0.150 HD
ATOM     49  O   ASP A   1      14.207  30.373  17.972  0.00  0.00    -0.274 OA
BRANCH  46  50
ATOM     50  CA  ASP A   1      12.200  29.168  17.457  0.00  0.00    +0.156 C 
BRANCH  50  51
ATOM     51  N   ASP A   1      11.416  30.011  16.562  0.00  0.00    -0.238 NA
ATOM     52  H   ASP A   1      11.908  30.659  15.914  0.00  0.00    +0.142 HD
ENDBRANCH  50  51
BRANCH  50  53
ATOM     53  CB  ASP A   1      13.040  28.176  16.645  0.00  0.00    +0.140 C 
BRANCH  53  54
ATOM     54  CG  ASP A   1      13.785  27.102  17.410  0.00  0.00    +0.367 C 
ATOM     55  OD2 ASP A   1      13.675  27.063  18.656  0.00  0.00    -0.246 OA
ATOM     56  OD1 ASP A   1      14.488  26.300  16.762  0.00  0.00    -0.246 OA
ENDBRANCH  53  54
ENDBRANCH  50  53
ENDBRANCH  46  50
ENDBRANCH  45  47
BRANCH  45  57
ATOM     57  CB  THR A   2      12.690  31.314  21.821  0.00  0.00    +0.137 C 
ATOM     58  CG2 THR A   2      11.502  32.211  21.510  0.00  0.00    +0.034 C 
BRANCH  57  59
ATOM     59  OG1 THR A   2      12.200  30.109  22.410  0.00  0.00    -0.382 OA
ATOM     60  HG1 THR A   2      12.963  29.523  22.643  0.00  0.00    +0.210 HD
ENDBRANCH  57  59
ENDBRANCH  45  57
ENDBRANCH  41  45
ENDBRANCH  40  43
ENDBRANCH  36  40
ENDBRANCH  34  38
ENDBRANCH  30  34
ENDBRANCH   1  31
BRANCH   1  61
ATOM     61  CB  ASP A   5      21.914  31.327  17.616  0.00  0.00    +0.143 C 
BRANCH  61  62
ATOM     62  CG  ASP A   5      22.373  30.837  18.986  0.00  0.00    +0.367 C 
ATOM     63  OD2 ASP A   5      21.629  30.776  19.965  0.00  0.00    -0.246 OA
ATOM     64  OD1 ASP A   5      23.607  30.501  19.023  0.00  0.00    -0.246 OA
ENDBRANCH  61  62
ENDBRANCH   1  61
TORSDOF 27
REMARK  Name = ../refined-set-2016/2aod/2aod_pocket.pdb
REMARK  239 active torsions:
REMARK  status: ('A' for Active; 'I' for Inactive)
REMARK    1  A    between atoms: _1  and  _3
REMARK    2  A    between atoms: _3  and  _4
REMARK    3  A    between atoms: _3  and  _6
REMARK    4  A    between atoms: _6  and  _7
REMARK    5  A    between atoms: _7  and  _8
REMARK    6  A    between atoms: _8  and  _9
REMARK    7  A    between atoms: _18  and  _20
REMARK    8  A    between atoms: _20  and  _21
REMARK    9  A    between atoms: _20  and  _23
REMARK   10  A    between atoms: _23  and  _24
REMARK   11  A    between atoms: _27  and  _29
REMARK   12  A    between atoms: _29  and  _30
REMARK   13  A    between atoms: _29  and  _32
REMARK   14  A    between atoms: _32  and  _33
REMARK   15  A    between atoms: _33  and  _34
REMARK   16  A    between atoms: _37  and  _39
REMARK   17  A    between atoms: _39  and  _40
REMARK   18  A    between atoms: _39  and  _42
REMARK   19  A    between atoms: _42  and  _43
REMARK   20  A    between atoms: _46  and  _48
REMARK   21  A    between atoms: _48  and  _49
REMARK   22  A    between atoms: _48  and  _51
REMARK   23  A    between atoms: _51  and  _52
REMARK   24  A    between atoms: _55  and  _57
REMARK   25  A    between atoms: _57  and  _58
REMARK   26  A    between atoms: _57  and  _60
REMARK   27  A    between atoms: _60  and  _61
REMARK   28  A    between atoms: _64  and  _66
REMARK   29  A    between atoms: _66  and  _67
REMARK   30  A    between atoms: _69  and  _71
REMARK   31  A    between atoms: _71  and  _72
REMARK   32  A    between atoms: _75  and  _77
REMARK   33  A    between atoms: _77  and  _78
REMARK   34  A    between atoms: _77  and  _80
REMARK   35  A    between atoms: _80  and  _81
REMARK   36  A    between atoms: _84  and  _86
REMARK   37  A    between atoms: _86  and  _87
REMARK   38  A    between atoms: _86  and  _89
REMARK   39  A    between atoms: _89  and  _90
REMARK   40  A    between atoms: _93  and  _95
REMARK   41  A    between atoms: _95  and  _96
REMARK   42  A    between atoms: _95  and  _98
REMARK   43  A    between atoms: _98  and  _99
REMARK   44  A    between atoms: _102  and  _104
REMARK   45  A    between atoms: _104  and  _105
REMARK   46  A    between atoms: _104  and  _107
REMARK   47  A    between atoms: _110  and  _112
REMARK   48  A    between atoms: _112  and  _113
REMARK   49  A    between atoms: _112  and  _115
REMARK   50  A    between atoms: _115  and  _116
REMARK   51  A    between atoms: _116  and  _117
REMARK   52  A    between atoms: _117  and  _118
REMARK   53  A    between atoms: _118  and  _119
REMARK   54  A    between atoms: _123  and  _125
REMARK   55  A    between atoms: _125  and  _126
REMARK   56  A    between atoms: _125  and  _128
REMARK   57  A    between atoms: _128  and  _129
REMARK   58  A    between atoms: _129  and  _130
REMARK   59  A    between atoms: _132  and  _134
REMARK   60  A    between atoms: _134  and  _135
REMARK   61  A    between atoms: _134  and  _137
REMARK   62  A    between atoms: _137  and  _138
REMARK   63  A    between atoms: _141  and  _143
REMARK   64  A    between atoms: _143  and  _144
REMARK   65  A    between atoms: _146  and  _148
REMARK   66  A    between atoms: _148  and  _149
REMARK   67  A    between atoms: _151  and  _153
REMARK   68  A    between atoms: _153  and  _154
REMARK   69  A    between atoms: _153  and  _156
REMARK   70  A    between atoms: _156  and  _157
REMARK   71  A    between atoms: _160  and  _162
REMARK   72  A    between atoms: _162  and  _163
REMARK   73  A    between atoms: _165  and  _167
REMARK   74  A    between atoms: _167  and  _168
REMARK   75  A    between atoms: _170  and  _172
REMARK   76  A    between atoms: _172  and  _173
REMARK   77  A    between atoms: _172  and  _175
REMARK   78  A    between atoms: _175  and  _176
REMARK   79  A    between atoms: _182  and  _184
REMARK   80  A    between atoms: _184  and  _185
REMARK   81  A    between atoms: _184  and  _187
REMARK   82  A    between atoms: _187  and  _188
REMARK   83  A    between atoms: _191  and  _193
REMARK   84  A    between atoms: _193  and  _194
REMARK   85  A    between atoms: _193  and  _196
REMARK   86  A    between atoms: _199  and  _201
REMARK   87  A    between atoms: _201  and  _202
REMARK   88  A    between atoms: _201  and  _204
REMARK   89  A    between atoms: _204  and  _205
REMARK   90  A    between atoms: _209  and  _210
REMARK   91  A    between atoms: _215  and  _217
REMARK   92  A    between atoms: _217  and  _218
REMARK   93  A    between atoms: _217  and  _220
REMARK   94  A    between atoms: _220  and  _221
REMARK   95  A    between atoms: _225  and  _226
REMARK   96  A    between atoms: _231  and  _233
REMARK   97  A    between atoms: _233  and  _234
REMARK   98  A    between atoms: _233  and  _236
REMARK   99  A    between atoms: _239  and  _241
REMARK  100  A    between atoms: _241  and  _242
REMARK  101  A    between atoms: _241  and  _244
REMARK  102  A    between atoms: _244  and  _245
REMARK  103  A    between atoms: _250  and  _252
REMARK  104  A    between atoms: _252  and  _253
REMARK  105  A    between atoms: _252  and  _255
REMARK  106  A    between atoms: _255  and  _256
REMARK  107  A    between atoms: _259  and  _261
REMARK  108  A    between atoms: _261  and  _262
REMARK  109  A    between atoms: _261  and  _264
REMARK  110  A    between atoms: _264  and  _265
REMARK  111  A    between atoms: _268  and  _270
REMARK  112  A    between atoms: _270  and  _271
REMARK  113  A    between atoms: _273  and  _275
REMARK  114  A    between atoms: _275  and  _276
REMARK  115  A    between atoms: _275  and  _278
REMARK  116  A    between atoms: _278  and  _279
REMARK  117  A    between atoms: _279  and  _280
REMARK  118  A    between atoms: _280  and  _281
REMARK  119  A    between atoms: _290  and  _292
REMARK  120  A    between atoms: _292  and  _293
REMARK  121  A    between atoms: _292  and  _295
REMARK  122  A    between atoms: _295  and  _296
REMARK  123  A    between atoms: _301  and  _303
REMARK  124  A    between atoms: _303  and  _304
REMARK  125  A    between atoms: _303  and  _306
REMARK  126  A    between atoms: _306  and  _307
REMARK  127  A    between atoms: _307  and  _308
REMARK  128  A    between atoms: _308  and  _309
REMARK  129  A    between atoms: _318  and  _320
REMARK  130  A    between atoms: _320  and  _321
REMARK  131  A    between atoms: _320  and  _323
REMARK  132  A    between atoms: _323  and  _324
REMARK  133  A    between atoms: _327  and  _329
REMARK  134  A    between atoms: _329  and  _330
REMARK  135  A    between atoms: _329  and  _332
REMARK  136  A    between atoms: _332  and  _333
REMARK  137  A    between atoms: _336  and  _338
REMARK  138  A    between atoms: _338  and  _339
REMARK  139  A    between atoms: _338  and  _341
REMARK  140  A    between atoms: _341  and  _342
REMARK  141  A    between atoms: _345  and  _347
REMARK  142  A    between atoms: _347  and  _348
REMARK  143  A    between atoms: _347  and  _350
REMARK  144  A    between atoms: _350  and  _351
REMARK  145  A    between atoms: _354  and  _356
REMARK  146  A    between atoms: _356  and  _357
REMARK  147  A    between atoms: _359  and  _361
REMARK  148  A    between atoms: _361  and  _362
REMARK  149  A    between atoms: _365  and  _367
REMARK  150  A    between atoms: _367  and  _368
REMARK  151  A    between atoms: _367  and  _370
REMARK  152  A    between atoms: _370  and  _371
REMARK  153  A    between atoms: _374  and  _376
REMARK  154  A    between atoms: _376  and  _377
REMARK  155  A    between atoms: _376  and  _379
REMARK  156  A    between atoms: _379  and  _380
REMARK  157  A    between atoms: _383  and  _385
REMARK  158  A    between atoms: _385  and  _386
REMARK  159  A    between atoms: _385  and  _388
REMARK  160  A    between atoms: _388  and  _389
REMARK  161  A    between atoms: _392  and  _394
REMARK  162  A    between atoms: _394  and  _395
REMARK  163  A    between atoms: _394  and  _397
REMARK  164  A    between atoms: _400  and  _402
REMARK  165  A    between atoms: _402  and  _403
REMARK  166  A    between atoms: _402  and  _405
REMARK  167  A    between atoms: _405  and  _406
REMARK  168  A    between atoms: _406  and  _407
REMARK  169  A    between atoms: _407  and  _408
REMARK  170  A    between atoms: _408  and  _409
REMARK  171  A    between atoms: _413  and  _415
REMARK  172  A    between atoms: _415  and  _416
REMARK  173  A    between atoms: _415  and  _418
REMARK  174  A    between atoms: _418  and  _419
REMARK  175  A    between atoms: _419  and  _420
REMARK  176  A    between atoms: _422  and  _424
REMARK  177  A    between atoms: _424  and  _425
REMARK  178  A    between atoms: _424  and  _427
REMARK  179  A    between atoms: _427  and  _428
REMARK  180  A    between atoms: _431  and  _433
REMARK  181  A    between atoms: _433  and  _434
REMARK  182  A    between atoms: _436  and  _438
REMARK  183  A    between atoms: _438  and  _439
REMARK  184  A    between atoms: _441  and  _443
REMARK  185  A    between atoms: _443  and  _444
REMARK  186  A    between atoms: _443  and  _446
REMARK  187  A    between atoms: _446  and  _447
REMARK  188  A    between atoms: _450  and  _452
REMARK  189  A    between atoms: _452  and  _453
REMARK  190  A    between atoms: _455  and  _457
REMARK  191  A    between atoms: _457  and  _458
REMARK  192  A    between atoms: _460  and  _462
REMARK  193  A    between atoms: _462  and  _463
REMARK  194  A    between atoms: _462  and  _465
REMARK  195  A    between atoms: _465  and  _466
REMARK  196  A    between atoms: _472  and  _474
REMARK  197  A    between atoms: _474  and  _475
REMARK  198  A    between atoms: _474  and  _477
REMARK  199  A    between atoms: _477  and  _478
REMARK  200  A    between atoms: _481  and  _483
REMARK  201  A    between atoms: _483  and  _484
REMARK  202  A    between atoms: _483  and  _486
REMARK  203  A    between atoms: _489  and  _491
REMARK  204  A    between atoms: _491  and  _492
REMARK  205  A    between atoms: _491  and  _494
REMARK  206  A    between atoms: _494  and  _495
REMARK  207  A    between atoms: _499  and  _500
REMARK  208  A    between atoms: _505  and  _507
REMARK  209  A    between atoms: _507  and  _508
REMARK  210  A    between atoms: _507  and  _510
REMARK  211  A    between atoms: _510  and  _511
REMARK  212  A    between atoms: _515  and  _516
REMARK  213  A    between atoms: _521  and  _523
REMARK  214  A    between atoms: _523  and  _524
REMARK  215  A    between atoms: _523  and  _526
REMARK  216  A    between atoms: _529  and  _531
REMARK  217  A    between atoms: _531  and  _532
REMARK  218  A    between atoms: _531  and  _534
REMARK  219  A    between atoms: _534  and  _535
REMARK  220  A    between atoms: _540  and  _542
REMARK  221  A    between atoms: _542  and  _543
REMARK  222  A    between atoms: _542  and  _545
REMARK  223  A    between atoms: _545  and  _546
REMARK  224  A    between atoms: _549  and  _551
REMARK  225  A    between atoms: _551  and  _552
REMARK  226  A    between atoms: _551  and  _554
REMARK  227  A    between atoms: _554  and  _555
REMARK  228  A    between atoms: _558  and  _560
REMARK  229  A    between atoms: _560  and  _561
REMARK  230  A    between atoms: _563  and  _565
REMARK  231  A    between atoms: _565  and  _566
REMARK  232  A    between atoms: _565  and  _568
REMARK  233  A    between atoms: _568  and  _569
REMARK  234  A    between atoms: _569  and  _570
REMARK  235  A    between atoms: _570  and  _571
REMARK  236  A    between atoms: _580  and  _582
REMARK  237  A    between atoms: _582  and  _583
REMARK  238  A    between atoms: _582  and  _585
REMARK  239  A    between atoms: _585  and  _586
REMARK                            x       y       z     vdW  Elec       q    Type
REMARK                         _______ _______ _______ _____ _____    ______ ____
ROOT
ATOM      1  C   GLY A   5      21.195  19.398  17.732  0.00  0.00    +0.243 C 
ATOM      2  N   ILE A   6      19.937  19.070  18.046  0.00  0.00    -0.297 N 
ATOM      3  H   ILE A   6      19.190  19.789  18.125  0.00  0.00    +0.150 HD
ATOM      4  O   GLY A   5      22.144  18.626  17.671  0.00  0.00    -0.273 OA
ENDROOT
BRANCH   1   5
ATOM      5  CA  GLY A   5      21.443  20.867  17.439  0.00  0.00    +0.176 C 
BRANCH   5   8
ATOM      6  C   GLY A   4      23.090  22.130  16.188  0.00  0.00    +0.243 C 
ATOM      7  O   GLY A   4      22.686  23.203  16.605  0.00  0.00    -0.273 OA
ATOM      8  N   GLY A   5      22.593  20.991  16.559  0.00  0.00    -0.295 N 
ATOM      9  H   GLY A   5      23.041  20.120  16.208  0.00  0.00    +0.150 HD
BRANCH   6  10
ATOM     10  CA  GLY A   4      24.261  21.994  15.237  0.00  0.00    +0.176 C 
BRANCH  10  12
ATOM     11  C   ILE A   3      24.726  23.231  13.241  0.00  0.00    +0.241 C 
ATOM     12  N   GLY A   4      24.586  23.212  14.554  0.00  0.00    -0.295 N 
ATOM     13  H   GLY A   4      24.713  24.089  15.098  0.00  0.00    +0.150 HD
ATOM     14  O   ILE A   3      24.477  22.245  12.549  0.00  0.00    -0.273 OA
BRANCH  11  15
ATOM     15  CA  ILE A   3      25.231  24.534  12.652  0.00  0.00    +0.149 C 
BRANCH  15  18
ATOM     16  C   MET A   2      27.350  24.748  11.455  0.00  0.00    +0.241 C 
ATOM     17  O   MET A   2      27.831  25.523  12.286  0.00  0.00    -0.273 OA
ATOM     18  N   ILE A   3      26.143  24.239  11.546  0.00  0.00    -0.297 N 
ATOM     19  H   ILE A   3      25.819  23.595  10.796  0.00  0.00    +0.150 HD
BRANCH  16  20
ATOM     20  CA  MET A   2      28.155  24.320  10.237  0.00  0.00    +0.149 C 
BRANCH  20  22
ATOM     21  C   LYS A   1      28.349  26.009   8.513  0.00  0.00    +0.238 C 
ATOM     22  N   MET A   2      28.755  25.534   9.689  0.00  0.00    -0.297 N 
ATOM     23  H   MET A   2      29.501  26.029  10.219  0.00  0.00    +0.150 HD
ATOM     24  O   LYS A   1      27.601  25.403   7.738  0.00  0.00    -0.274 OA
BRANCH  21  25
ATOM     25  CA  LYS A   1      28.812  27.416   8.161  0.00  0.00    +0.145 C 
BRANCH  25  26
ATOM     26  N   LYS A   1      28.945  27.515   6.719  0.00  0.00    -0.238 NA
ATOM     27  H   LYS A   1      28.272  26.976   6.137  0.00  0.00    +0.142 HD
ENDBRANCH  25  26
BRANCH  25  28
ATOM     28  CB  LYS A   1      27.814  28.472   8.681  0.00  0.00    +0.026 C 
BRANCH  28  29
ATOM     29  CG  LYS A   1      27.878  28.767  10.172  0.00  0.00    -0.000 C 
BRANCH  29  30
ATOM     30  CD  LYS A   1      26.899  29.815  10.646  0.00  0.00    -0.024 C 
BRANCH  30  31
ATOM     31  CE  LYS A   1      27.210  30.188  12.111  0.00  0.00    -0.086 C 
BRANCH  31  32
ATOM     32  NZ  LYS A   1      26.262  31.182  12.649  0.00  0.00    +0.380 N 
ATOM     33  HZ1 LYS A   1      26.512  31.400  13.635  0.00  0.00    -0.089 HD
ATOM     34  HZ2 LYS A   1      25.298  30.795  12.612  0.00  0.00    -0.089 HD
ATOM     35  HZ3 LYS A   1      26.310  32.050  12.078  0.00  0.00    -0.089 HD
ENDBRANCH  31  32
ENDBRANCH  30  31
ENDBRANCH  29  30
ENDBRANCH  28  29
ENDBRANCH  25  28
ENDBRANCH  21  25
ENDBRANCH  20  22
BRANCH  20  36
ATOM     36  CB  MET A   2      29.169  23.209  10.493  0.00  0.00    +0.041 C 
BRANCH  36  37
ATOM     37  CG  MET A   2      29.261  22.382   9.200  0.00  0.00    +0.060 C 
BRANCH  37  38
ATOM     38  SD  MET A   2      30.626  21.230   9.158  0.00  0.00    -0.139 S 
ATOM     39  CE  MET A   2      30.090  19.986  10.328  0.00  0.00    +0.069 C 
ENDBRANCH  37  38
ENDBRANCH  36  37
ENDBRANCH  20  36
ENDBRANCH  16  20
ENDBRANCH  15  18
BRANCH  15  40
ATOM     40  CB  ILE A   3      24.064  25.397  12.209  0.00  0.00    +0.027 C 
ATOM     41  CG2 ILE A   3      24.568  26.798  11.870  0.00  0.00    +0.002 C 
BRANCH  40  42
ATOM     42  CG1 ILE A   3      23.256  24.813  11.046  0.00  0.00    +0.002 C 
ATOM     43  CD1 ILE A   3      21.995  25.600  10.721  0.00  0.00    +0.000 C 
ENDBRANCH  40  42
ENDBRANCH  15  40
ENDBRANCH  11  15
ENDBRANCH  10  12
ENDBRANCH   6  10
ENDBRANCH   5   8
ENDBRANCH   1   5
BRANCH   2  44
ATOM     44  CA  ILE A   6      19.661  17.640  18.274  0.00  0.00    +0.149 C 
BRANCH  44  45
ATOM     45  C   ILE A   6      19.927  16.886  16.997  0.00  0.00    +0.241 C 
ATOM     46  N   GLY A   7      20.621  15.758  17.133  0.00  0.00    -0.295 N 
ATOM     47  H   GLY A   7      20.915  15.441  18.079  0.00  0.00    +0.150 HD
ATOM     48  O   ILE A   6      19.532  17.315  15.915  0.00  0.00    -0.273 OA
BRANCH  46  49
ATOM     49  CA  GLY A   7      20.967  14.971  15.969  0.00  0.00    +0.176 C 
BRANCH  49  50
ATOM     50  C   GLY A   7      22.289  15.384  15.373  0.00  0.00    +0.243 C 
ATOM     51  N   GLY A   8      22.963  16.454  15.773  0.00  0.00    -0.295 N 
ATOM     52  H   GLY A   8      22.542  17.064  16.503  0.00  0.00    +0.150 HD
ATOM     53  O   GLY A   7      22.739  14.690  14.490  0.00  0.00    -0.273 OA
BRANCH  51  54
ATOM     54  CA  GLY A   8      24.268  16.812  15.234  0.00  0.00    +0.176 C 
BRANCH  54  55
ATOM     55  C   GLY A   8      24.245  18.053  14.345  0.00  0.00    +0.243 C 
ATOM     56  O   GLY A   8      23.421  18.947  14.576  0.00  0.00    -0.273 OA
ATOM     57  N   PHE A   9      25.137  18.105  13.359  0.00  0.00    -0.297 N 
ATOM     58  H   PHE A   9      25.695  17.251  13.156  0.00  0.00    +0.150 HD
BRANCH  57  59
ATOM     59  CA  PHE A   9      25.376  19.293  12.547  0.00  0.00    +0.153 C 
BRANCH  59  60
ATOM     60  C   PHE A   9      24.995  19.086  11.089  0.00  0.00    +0.241 C 
ATOM     61  O   PHE A   9      25.022  17.964  10.573  0.00  0.00    -0.273 OA
ATOM     62  N   ILE A  10      24.641  20.212  10.482  0.00  0.00    -0.298 N 
ATOM     63  H   ILE A  10      24.479  21.069  11.048  0.00  0.00    +0.150 HD
BRANCH  62  64
ATOM     64  CA  ILE A  10      24.476  20.266   9.042  0.00  0.00    +0.137 C 
BRANCH  64  65
ATOM     65  CB  ILE A  10      22.999  20.414   8.583  0.00  0.00    +0.026 C 
ATOM     66  CG2 ILE A  10      22.220  19.183   8.977  0.00  0.00    +0.002 C 
BRANCH  65  67
ATOM     67  CG1 ILE A  10      22.284  21.682   9.076  0.00  0.00    +0.002 C 
ATOM     68  CD1 ILE A  10      20.892  21.882   8.435  0.00  0.00    +0.000 C 
ENDBRANCH  65  67
ENDBRANCH  64  65
BRANCH  64  69
ATOM     69  C   ILE A  10      25.271  21.447   8.490  0.00  0.00    +0.227 C 
ATOM     70  O   ILE A  10      25.516  22.422   9.210  0.00  0.00    -0.286 OA
ENDBRANCH  64  69
ENDBRANCH  62  64
ENDBRANCH  59  60
BRANCH  59  71
ATOM     71  CB  PHE A   9      26.853  19.683  12.551  0.00  0.00    +0.055 C 
BRANCH  71  72
ATOM     72  CG  PHE A   9      27.342  20.167  13.904  0.00  0.00    -0.020 A 
ATOM     73  CD2 PHE A   9      27.595  19.293  14.953  0.00  0.00    -0.004 A 
ATOM     74  CE2 PHE A   9      28.032  19.797  16.157  0.00  0.00    -0.000 A 
ATOM     75  CZ  PHE A   9      28.248  21.157  16.311  0.00  0.00    -0.000 A 
ATOM     76  CE1 PHE A   9      27.982  22.027  15.271  0.00  0.00    -0.000 A 
ATOM     77  CD1 PHE A   9      27.537  21.528  14.060  0.00  0.00    -0.004 A 
ENDBRANCH  71  72
ENDBRANCH  59  71
ENDBRANCH  57  59
ENDBRANCH  54  55
ENDBRANCH  51  54
ENDBRANCH  49  50
ENDBRANCH  46  49
ENDBRANCH  44  45
BRANCH  44  78
ATOM     78  CB  ILE A   6      18.231  17.486  18.803  0.00  0.00    +0.027 C 
ATOM     79  CG2 ILE A   6      17.640  16.127  18.492  0.00  0.00    +0.002 C 
BRANCH  78  80
ATOM     80  CG1 ILE A   6      18.183  17.762  20.326  0.00  0.00    +0.002 C 
ATOM     81  CD1 ILE A   6      16.822  17.926  20.893  0.00  0.00    +0.000 C 
ENDBRANCH  78  80
ENDBRANCH  44  78
ENDBRANCH   2  44
TORSDOF 36
REMARK  Name = ../refined-set-2016/2aod/2aod_pocket.pdb
REMARK  239 active torsions:
REMARK  status: ('A' for Active; 'I' for Inactive)
REMARK    1  A    between atoms: _1  and  _3
REMARK    2  A    between atoms: _3  and  _4
REMARK    3  A    between atoms: _3  and  _6
REMARK    4  A    between atoms: _6  and  _7
REMARK    5  A    between atoms: _7  and  _8
REMARK    6  A    between atoms: _8  and  _9
REMARK    7  A    between atoms: _18  and  _20
REMARK    8  A    between atoms: _20  and  _21
REMARK    9  A    between atoms: _20  and  _23
REMARK   10  A    between atoms: _23  and  _24
REMARK   11  A    between atoms: _27  and  _29
REMARK   12  A    between atoms: _29  and  _30
REMARK   13  A    between atoms: _29  and  _32
REMARK   14  A    between atoms: _32  and  _33
REMARK   15  A    between atoms: _33  and  _34
REMARK   16  A    between atoms: _37  and  _39
REMARK   17  A    between atoms: _39  and  _40
REMARK   18  A    between atoms: _39  and  _42
REMARK   19  A    between atoms: _42  and  _43
REMARK   20  A    between atoms: _46  and  _48
REMARK   21  A    between atoms: _48  and  _49
REMARK   22  A    between atoms: _48  and  _51
REMARK   23  A    between atoms: _51  and  _52
REMARK   24  A    between atoms: _55  and  _57
REMARK   25  A    between atoms: _57  and  _58
REMARK   26  A    between atoms: _57  and  _60
REMARK   27  A    between atoms: _60  and  _61
REMARK   28  A    between atoms: _64  and  _66
REMARK   29  A    between atoms: _66  and  _67
REMARK   30  A    between atoms: _69  and  _71
REMARK   31  A    between atoms: _71  and  _72
REMARK   32  A    between atoms: _75  and  _77
REMARK   33  A    between atoms: _77  and  _78
REMARK   34  A    between atoms: _77  and  _80
REMARK   35  A    between atoms: _80  and  _81
REMARK   36  A    between atoms: _84  and  _86
REMARK   37  A    between atoms: _86  and  _87
REMARK   38  A    between atoms: _86  and  _89
REMARK   39  A    between atoms: _89  and  _90
REMARK   40  A    between atoms: _93  and  _95
REMARK   41  A    between atoms: _95  and  _96
REMARK   42  A    between atoms: _95  and  _98
REMARK   43  A    between atoms: _98  and  _99
REMARK   44  A    between atoms: _102  and  _104
REMARK   45  A    between atoms: _104  and  _105
REMARK   46  A    between atoms: _104  and  _107
REMARK   47  A    between atoms: _110  and  _112
REMARK   48  A    between atoms: _112  and  _113
REMARK   49  A    between atoms: _112  and  _115
REMARK   50  A    between atoms: _115  and  _116
REMARK   51  A    between atoms: _116  and  _117
REMARK   52  A    between atoms: _117  and  _118
REMARK   53  A    between atoms: _118  and  _119
REMARK   54  A    between atoms: _123  and  _125
REMARK   55  A    between atoms: _125  and  _126
REMARK   56  A    between atoms: _125  and  _128
REMARK   57  A    between atoms: _128  and  _129
REMARK   58  A    between atoms: _129  and  _130
REMARK   59  A    between atoms: _132  and  _134
REMARK   60  A    between atoms: _134  and  _135
REMARK   61  A    between atoms: _134  and  _137
REMARK   62  A    between atoms: _137  and  _138
REMARK   63  A    between atoms: _141  and  _143
REMARK   64  A    between atoms: _143  and  _144
REMARK   65  A    between atoms: _146  and  _148
REMARK   66  A    between atoms: _148  and  _149
REMARK   67  A    between atoms: _151  and  _153
REMARK   68  A    between atoms: _153  and  _154
REMARK   69  A    between atoms: _153  and  _156
REMARK   70  A    between atoms: _156  and  _157
REMARK   71  A    between atoms: _160  and  _162
REMARK   72  A    between atoms: _162  and  _163
REMARK   73  A    between atoms: _165  and  _167
REMARK   74  A    between atoms: _167  and  _168
REMARK   75  A    between atoms: _170  and  _172
REMARK   76  A    between atoms: _172  and  _173
REMARK   77  A    between atoms: _172  and  _175
REMARK   78  A    between atoms: _175  and  _176
REMARK   79  A    between atoms: _182  and  _184
REMARK   80  A    between atoms: _184  and  _185
REMARK   81  A    between atoms: _184  and  _187
REMARK   82  A    between atoms: _187  and  _188
REMARK   83  A    between atoms: _191  and  _193
REMARK   84  A    between atoms: _193  and  _194
REMARK   85  A    between atoms: _193  and  _196
REMARK   86  A    between atoms: _199  and  _201
REMARK   87  A    between atoms: _201  and  _202
REMARK   88  A    between atoms: _201  and  _204
REMARK   89  A    between atoms: _204  and  _205
REMARK   90  A    between atoms: _209  and  _210
REMARK   91  A    between atoms: _215  and  _217
REMARK   92  A    between atoms: _217  and  _218
REMARK   93  A    between atoms: _217  and  _220
REMARK   94  A    between atoms: _220  and  _221
REMARK   95  A    between atoms: _225  and  _226
REMARK   96  A    between atoms: _231  and  _233
REMARK   97  A    between atoms: _233  and  _234
REMARK   98  A    between atoms: _233  and  _236
REMARK   99  A    between atoms: _239  and  _241
REMARK  100  A    between atoms: _241  and  _242
REMARK  101  A    between atoms: _241  and  _244
REMARK  102  A    between atoms: _244  and  _245
REMARK  103  A    between atoms: _250  and  _252
REMARK  104  A    between atoms: _252  and  _253
REMARK  105  A    between atoms: _252  and  _255
REMARK  106  A    between atoms: _255  and  _256
REMARK  107  A    between atoms: _259  and  _261
REMARK  108  A    between atoms: _261  and  _262
REMARK  109  A    between atoms: _261  and  _264
REMARK  110  A    between atoms: _264  and  _265
REMARK  111  A    between atoms: _268  and  _270
REMARK  112  A    between atoms: _270  and  _271
REMARK  113  A    between atoms: _273  and  _275
REMARK  114  A    between atoms: _275  and  _276
REMARK  115  A    between atoms: _275  and  _278
REMARK  116  A    between atoms: _278  and  _279
REMARK  117  A    between atoms: _279  and  _280
REMARK  118  A    between atoms: _280  and  _281
REMARK  119  A    between atoms: _290  and  _292
REMARK  120  A    between atoms: _292  and  _293
REMARK  121  A    between atoms: _292  and  _295
REMARK  122  A    between atoms: _295  and  _296
REMARK  123  A    between atoms: _301  and  _303
REMARK  124  A    between atoms: _303  and  _304
REMARK  125  A    between atoms: _303  and  _306
REMARK  126  A    between atoms: _306  and  _307
REMARK  127  A    between atoms: _307  and  _308
REMARK  128  A    between atoms: _308  and  _309
REMARK  129  A    between atoms: _318  and  _320
REMARK  130  A    between atoms: _320  and  _321
REMARK  131  A    between atoms: _320  and  _323
REMARK  132  A    between atoms: _323  and  _324
REMARK  133  A    between atoms: _327  and  _329
REMARK  134  A    between atoms: _329  and  _330
REMARK  135  A    between atoms: _329  and  _332
REMARK  136  A    between atoms: _332  and  _333
REMARK  137  A    between atoms: _336  and  _338
REMARK  138  A    between atoms: _338  and  _339
REMARK  139  A    between atoms: _338  and  _341
REMARK  140  A    between atoms: _341  and  _342
REMARK  141  A    between atoms: _345  and  _347
REMARK  142  A    between atoms: _347  and  _348
REMARK  143  A    between atoms: _347  and  _350
REMARK  144  A    between atoms: _350  and  _351
REMARK  145  A    between atoms: _354  and  _356
REMARK  146  A    between atoms: _356  and  _357
REMARK  147  A    between atoms: _359  and  _361
REMARK  148  A    between atoms: _361  and  _362
REMARK  149  A    between atoms: _365  and  _367
REMARK  150  A    between atoms: _367  and  _368
REMARK  151  A    between atoms: _367  and  _370
REMARK  152  A    between atoms: _370  and  _371
REMARK  153  A    between atoms: _374  and  _376
REMARK  154  A    between atoms: _376  and  _377
REMARK  155  A    between atoms: _376  and  _379
REMARK  156  A    between atoms: _379  and  _380
REMARK  157  A    between atoms: _383  and  _385
REMARK  158  A    between atoms: _385  and  _386
REMARK  159  A    between atoms: _385  and  _388
REMARK  160  A    between atoms: _388  and  _389
REMARK  161  A    between atoms: _392  and  _394
REMARK  162  A    between atoms: _394  and  _395
REMARK  163  A    between atoms: _394  and  _397
REMARK  164  A    between atoms: _400  and  _402
REMARK  165  A    between atoms: _402  and  _403
REMARK  166  A    between atoms: _402  and  _405
REMARK  167  A    between atoms: _405  and  _406
REMARK  168  A    between atoms: _406  and  _407
REMARK  169  A    between atoms: _407  and  _408
REMARK  170  A    between atoms: _408  and  _409
REMARK  171  A    between atoms: _413  and  _415
REMARK  172  A    between atoms: _415  and  _416
REMARK  173  A    between atoms: _415  and  _418
REMARK  174  A    between atoms: _418  and  _419
REMARK  175  A    between atoms: _419  and  _420
REMARK  176  A    between atoms: _422  and  _424
REMARK  177  A    between atoms: _424  and  _425
REMARK  178  A    between atoms: _424  and  _427
REMARK  179  A    between atoms: _427  and  _428
REMARK  180  A    between atoms: _431  and  _433
REMARK  181  A    between atoms: _433  and  _434
REMARK  182  A    between atoms: _436  and  _438
REMARK  183  A    between atoms: _438  and  _439
REMARK  184  A    between atoms: _441  and  _443
REMARK  185  A    between atoms: _443  and  _444
REMARK  186  A    between atoms: _443  and  _446
REMARK  187  A    between atoms: _446  and  _447
REMARK  188  A    between atoms: _450  and  _452
REMARK  189  A    between atoms: _452  and  _453
REMARK  190  A    between atoms: _455  and  _457
REMARK  191  A    between atoms: _457  and  _458
REMARK  192  A    between atoms: _460  and  _462
REMARK  193  A    between atoms: _462  and  _463
REMARK  194  A    between atoms: _462  and  _465
REMARK  195  A    between atoms: _465  and  _466
REMARK  196  A    between atoms: _472  and  _474
REMARK  197  A    between atoms: _474  and  _475
REMARK  198  A    between atoms: _474  and  _477
REMARK  199  A    between atoms: _477  and  _478
REMARK  200  A    between atoms: _481  and  _483
REMARK  201  A    between atoms: _483  and  _484
REMARK  202  A    between atoms: _483  and  _486
REMARK  203  A    between atoms: _489  and  _491
REMARK  204  A    between atoms: _491  and  _492
REMARK  205  A    between atoms: _491  and  _494
REMARK  206  A    between atoms: _494  and  _495
REMARK  207  A    between atoms: _499  and  _500
REMARK  208  A    between atoms: _505  and  _507
REMARK  209  A    between atoms: _507  and  _508
REMARK  210  A    between atoms: _507  and  _510
REMARK  211  A    between atoms: _510  and  _511
REMARK  212  A    between atoms: _515  and  _516
REMARK  213  A    between atoms: _521  and  _523
REMARK  214  A    between atoms: _523  and  _524
REMARK  215  A    between atoms: _523  and  _526
REMARK  216  A    between atoms: _529  and  _531
REMARK  217  A    between atoms: _531  and  _532
REMARK  218  A    between atoms: _531  and  _534
REMARK  219  A    between atoms: _534  and  _535
REMARK  220  A    between atoms: _540  and  _542
REMARK  221  A    between atoms: _542  and  _543
REMARK  222  A    between atoms: _542  and  _545
REMARK  223  A    between atoms: _545  and  _546
REMARK  224  A    between atoms: _549  and  _551
REMARK  225  A    between atoms: _551  and  _552
REMARK  226  A    between atoms: _551  and  _554
REMARK  227  A    between atoms: _554  and  _555
REMARK  228  A    between atoms: _558  and  _560
REMARK  229  A    between atoms: _560  and  _561
REMARK  230  A    between atoms: _563  and  _565
REMARK  231  A    between atoms: _565  and  _566
REMARK  232  A    between atoms: _565  and  _568
REMARK  233  A    between atoms: _568  and  _569
REMARK  234  A    between atoms: _569  and  _570
REMARK  235  A    between atoms: _570  and  _571
REMARK  236  A    between atoms: _580  and  _582
REMARK  237  A    between atoms: _582  and  _583
REMARK  238  A    between atoms: _582  and  _585
REMARK  239  A    between atoms: _585  and  _586
REMARK                            x       y       z     vdW  Elec       q    Type
REMARK                         _______ _______ _______ _____ _____    ______ ____
ROOT
ATOM      1  CA  VAL A   1      24.660  25.617   5.315  0.00  0.00    +0.133 C 
ENDROOT
BRANCH   1   2
ATOM      2  CB  VAL A   1      23.720  26.242   6.359  0.00  0.00    +0.023 C 
ATOM      3  CG2 VAL A   1      24.488  26.933   7.479  0.00  0.00    +0.002 C 
ATOM      4  CG1 VAL A   1      22.797  25.161   6.928  0.00  0.00    +0.002 C 
ENDBRANCH   1   2
BRANCH   1   5
ATOM      5  N   VAL A   1      25.537  24.625   5.912  0.00  0.00    -0.239 NA
ATOM      6  H   VAL A   1      26.344  24.956   6.479  0.00  0.00    +0.142 HD
ENDBRANCH   1   5
BRANCH   1   7
ATOM      7  C   VAL A   1      25.483  26.706   4.638  0.00  0.00    +0.224 C 
ATOM      8  O   VAL A   1      26.684  26.820   4.867  0.00  0.00    -0.287 OA
ENDBRANCH   1   7
TORSDOF 3
REMARK  Name = ../refined-set-2016/2aod/2aod_pocket.pdb
REMARK  239 active torsions:
REMARK  status: ('A' for Active; 'I' for Inactive)
REMARK    1  A    between atoms: _1  and  _3
REMARK    2  A    between atoms: _3  and  _4
REMARK    3  A    between atoms: _3  and  _6
REMARK    4  A    between atoms: _6  and  _7
REMARK    5  A    between atoms: _7  and  _8
REMARK    6  A    between atoms: _8  and  _9
REMARK    7  A    between atoms: _18  and  _20
REMARK    8  A    between atoms: _20  and  _21
REMARK    9  A    between atoms: _20  and  _23
REMARK   10  A    between atoms: _23  and  _24
REMARK   11  A    between atoms: _27  and  _29
REMARK   12  A    between atoms: _29  and  _30
REMARK   13  A    between atoms: _29  and  _32
REMARK   14  A    between atoms: _32  and  _33
REMARK   15  A    between atoms: _33  and  _34
REMARK   16  A    between atoms: _37  and  _39
REMARK   17  A    between atoms: _39  and  _40
REMARK   18  A    between atoms: _39  and  _42
REMARK   19  A    between atoms: _42  and  _43
REMARK   20  A    between atoms: _46  and  _48
REMARK   21  A    between atoms: _48  and  _49
REMARK   22  A    between atoms: _48  and  _51
REMARK   23  A    between atoms: _51  and  _52
REMARK   24  A    between atoms: _55  and  _57
REMARK   25  A    between atoms: _57  and  _58
REMARK   26  A    between atoms: _57  and  _60
REMARK   27  A    between atoms: _60  and  _61
REMARK   28  A    between atoms: _64  and  _66
REMARK   29  A    between atoms: _66  and  _67
REMARK   30  A    between atoms: _69  and  _71
REMARK   31  A    between atoms: _71  and  _72
REMARK   32  A    between atoms: _75  and  _77
REMARK   33  A    between atoms: _77  and  _78
REMARK   34  A    between atoms: _77  and  _80
REMARK   35  A    between atoms: _80  and  _81
REMARK   36  A    between atoms: _84  and  _86
REMARK   37  A    between atoms: _86  and  _87
REMARK   38  A    between atoms: _86  and  _89
REMARK   39  A    between atoms: _89  and  _90
REMARK   40  A    between atoms: _93  and  _95
REMARK   41  A    between atoms: _95  and  _96
REMARK   42  A    between atoms: _95  and  _98
REMARK   43  A    between atoms: _98  and  _99
REMARK   44  A    between atoms: _102  and  _104
REMARK   45  A    between atoms: _104  and  _105
REMARK   46  A    between atoms: _104  and  _107
REMARK   47  A    between atoms: _110  and  _112
REMARK   48  A    between atoms: _112  and  _113
REMARK   49  A    between atoms: _112  and  _115
REMARK   50  A    between atoms: _115  and  _116
REMARK   51  A    between atoms: _116  and  _117
REMARK   52  A    between atoms: _117  and  _118
REMARK   53  A    between atoms: _118  and  _119
REMARK   54  A    between atoms: _123  and  _125
REMARK   55  A    between atoms: _125  and  _126
REMARK   56  A    between atoms: _125  and  _128
REMARK   57  A    between atoms: _128  and  _129
REMARK   58  A    between atoms: _129  and  _130
REMARK   59  A    between atoms: _132  and  _134
REMARK   60  A    between atoms: _134  and  _135
REMARK   61  A    between atoms: _134  and  _137
REMARK   62  A    between atoms: _137  and  _138
REMARK   63  A    between atoms: _141  and  _143
REMARK   64  A    between atoms: _143  and  _144
REMARK   65  A    between atoms: _146  and  _148
REMARK   66  A    between atoms: _148  and  _149
REMARK   67  A    between atoms: _151  and  _153
REMARK   68  A    between atoms: _153  and  _154
REMARK   69  A    between atoms: _153  and  _156
REMARK   70  A    between atoms: _156  and  _157
REMARK   71  A    between atoms: _160  and  _162
REMARK   72  A    between atoms: _162  and  _163
REMARK   73  A    between atoms: _165  and  _167
REMARK   74  A    between atoms: _167  and  _168
REMARK   75  A    between atoms: _170  and  _172
REMARK   76  A    between atoms: _172  and  _173
REMARK   77  A    between atoms: _172  and  _175
REMARK   78  A    between atoms: _175  and  _176
REMARK   79  A    between atoms: _182  and  _184
REMARK   80  A    between atoms: _184  and  _185
REMARK   81  A    between atoms: _184  and  _187
REMARK   82  A    between atoms: _187  and  _188
REMARK   83  A    between atoms: _191  and  _193
REMARK   84  A    between atoms: _193  and  _194
REMARK   85  A    between atoms: _193  and  _196
REMARK   86  A    between atoms: _199  and  _201
REMARK   87  A    between atoms: _201  and  _202
REMARK   88  A    between atoms: _201  and  _204
REMARK   89  A    between atoms: _204  and  _205
REMARK   90  A    between atoms: _209  and  _210
REMARK   91  A    between atoms: _215  and  _217
REMARK   92  A    between atoms: _217  and  _218
REMARK   93  A    between atoms: _217  and  _220
REMARK   94  A    between atoms: _220  and  _221
REMARK   95  A    between atoms: _225  and  _226
REMARK   96  A    between atoms: _231  and  _233
REMARK   97  A    between atoms: _233  and  _234
REMARK   98  A    between atoms: _233  and  _236
REMARK   99  A    between atoms: _239  and  _241
REMARK  100  A    between atoms: _241  and  _242
REMARK  101  A    between atoms: _241  and  _244
REMARK  102  A    between atoms: _244  and  _245
REMARK  103  A    between atoms: _250  and  _252
REMARK  104  A    between atoms: _252  and  _253
REMARK  105  A    between atoms: _252  and  _255
REMARK  106  A    between atoms: _255  and  _256
REMARK  107  A    between atoms: _259  and  _261
REMARK  108  A    between atoms: _261  and  _262
REMARK  109  A    between atoms: _261  and  _264
REMARK  110  A    between atoms: _264  and  _265
REMARK  111  A    between atoms: _268  and  _270
REMARK  112  A    between atoms: _270  and  _271
REMARK  113  A    between atoms: _273  and  _275
REMARK  114  A    between atoms: _275  and  _276
REMARK  115  A    between atoms: _275  and  _278
REMARK  116  A    between atoms: _278  and  _279
REMARK  117  A    between atoms: _279  and  _280
REMARK  118  A    between atoms: _280  and  _281
REMARK  119  A    between atoms: _290  and  _292
REMARK  120  A    between atoms: _292  and  _293
REMARK  121  A    between atoms: _292  and  _295
REMARK  122  A    between atoms: _295  and  _296
REMARK  123  A    between atoms: _301  and  _303
REMARK  124  A    between atoms: _303  and  _304
REMARK  125  A    between atoms: _303  and  _306
REMARK  126  A    between atoms: _306  and  _307
REMARK  127  A    between atoms: _307  and  _308
REMARK  128  A    between atoms: _308  and  _309
REMARK  129  A    between atoms: _318  and  _320
REMARK  130  A    between atoms: _320  and  _321
REMARK  131  A    between atoms: _320  and  _323
REMARK  132  A    between atoms: _323  and  _324
REMARK  133  A    between atoms: _327  and  _329
REMARK  134  A    between atoms: _329  and  _330
REMARK  135  A    between atoms: _329  and  _332
REMARK  136  A    between atoms: _332  and  _333
REMARK  137  A    between atoms: _336  and  _338
REMARK  138  A    between atoms: _338  and  _339
REMARK  139  A    between atoms: _338  and  _341
REMARK  140  A    between atoms: _341  and  _342
REMARK  141  A    between atoms: _345  and  _347
REMARK  142  A    between atoms: _347  and  _348
REMARK  143  A    between atoms: _347  and  _350
REMARK  144  A    between atoms: _350  and  _351
REMARK  145  A    between atoms: _354  and  _356
REMARK  146  A    between atoms: _356  and  _357
REMARK  147  A    between atoms: _359  and  _361
REMARK  148  A    between atoms: _361  and  _362
REMARK  149  A    between atoms: _365  and  _367
REMARK  150  A    between atoms: _367  and  _368
REMARK  151  A    between atoms: _367  and  _370
REMARK  152  A    between atoms: _370  and  _371
REMARK  153  A    between atoms: _374  and  _376
REMARK  154  A    between atoms: _376  and  _377
REMARK  155  A    between atoms: _376  and  _379
REMARK  156  A    between atoms: _379  and  _380
REMARK  157  A    between atoms: _383  and  _385
REMARK  158  A    between atoms: _385  and  _386
REMARK  159  A    between atoms: _385  and  _388
REMARK  160  A    between atoms: _388  and  _389
REMARK  161  A    between atoms: _392  and  _394
REMARK  162  A    between atoms: _394  and  _395
REMARK  163  A    between atoms: _394  and  _397
REMARK  164  A    between atoms: _400  and  _402
REMARK  165  A    between atoms: _402  and  _403
REMARK  166  A    between atoms: _402  and  _405
REMARK  167  A    between atoms: _405  and  _406
REMARK  168  A    between atoms: _406  and  _407
REMARK  169  A    between atoms: _407  and  _408
REMARK  170  A    between atoms: _408  and  _409
REMARK  171  A    between atoms: _413  and  _415
REMARK  172  A    between atoms: _415  and  _416
REMARK  173  A    between atoms: _415  and  _418
REMARK  174  A    between atoms: _418  and  _419
REMARK  175  A    between atoms: _419  and  _420
REMARK  176  A    between atoms: _422  and  _424
REMARK  177  A    between atoms: _424  and  _425
REMARK  178  A    between atoms: _424  and  _427
REMARK  179  A    between atoms: _427  and  _428
REMARK  180  A    between atoms: _431  and  _433
REMARK  181  A    between atoms: _433  and  _434
REMARK  182  A    between atoms: _436  and  _438
REMARK  183  A    between atoms: _438  and  _439
REMARK  184  A    between atoms: _441  and  _443
REMARK  185  A    between atoms: _443  and  _444
REMARK  186  A    between atoms: _443  and  _446
REMARK  187  A    between atoms: _446  and  _447
REMARK  188  A    between atoms: _450  and  _452
REMARK  189  A    between atoms: _452  and  _453
REMARK  190  A    between atoms: _455  and  _457
REMARK  191  A    between atoms: _457  and  _458
REMARK  192  A    between atoms: _460  and  _462
REMARK  193  A    between atoms: _462  and  _463
REMARK  194  A    between atoms: _462  and  _465
REMARK  195  A    between atoms: _465  and  _466
REMARK  196  A    between atoms: _472  and  _474
REMARK  197  A    between atoms: _474  and  _475
REMARK  198  A    between atoms: _474  and  _477
REMARK  199  A    between atoms: _477  and  _478
REMARK  200  A    between atoms: _481  and  _483
REMARK  201  A    between atoms: _483  and  _484
REMARK  202  A    between atoms: _483  and  _486
REMARK  203  A    between atoms: _489  and  _491
REMARK  204  A    between atoms: _491  and  _492
REMARK  205  A    between atoms: _491  and  _494
REMARK  206  A    between atoms: _494  and  _495
REMARK  207  A    between atoms: _499  and  _500
REMARK  208  A    between atoms: _505  and  _507
REMARK  209  A    between atoms: _507  and  _508
REMARK  210  A    between atoms: _507  and  _510
REMARK  211  A    between atoms: _510  and  _511
REMARK  212  A    between atoms: _515  and  _516
REMARK  213  A    between atoms: _521  and  _523
REMARK  214  A    between atoms: _523  and  _524
REMARK  215  A    between atoms: _523  and  _526
REMARK  216  A    between atoms: _529  and  _531
REMARK  217  A    between atoms: _531  and  _532
REMARK  218  A    between atoms: _531  and  _534
REMARK  219  A    between atoms: _534  and  _535
REMARK  220  A    between atoms: _540  and  _542
REMARK  221  A    between atoms: _542  and  _543
REMARK  222  A    between atoms: _542  and  _545
REMARK  223  A    between atoms: _545  and  _546
REMARK  224  A    between atoms: _549  and  _551
REMARK  225  A    between atoms: _551  and  _552
REMARK  226  A    between atoms: _551  and  _554
REMARK  227  A    between atoms: _554  and  _555
REMARK  228  A    between atoms: _558  and  _560
REMARK  229  A    between atoms: _560  and  _561
REMARK  230  A    between atoms: _563  and  _565
REMARK  231  A    between atoms: _565  and  _566
REMARK  232  A    between atoms: _565  and  _568
REMARK  233  A    between atoms: _568  and  _569
REMARK  234  A    between atoms: _569  and  _570
REMARK  235  A    between atoms: _570  and  _571
REMARK  236  A    between atoms: _580  and  _582
REMARK  237  A    between atoms: _582  and  _583
REMARK  238  A    between atoms: _582  and  _585
REMARK  239  A    between atoms: _585  and  _586
REMARK                            x       y       z     vdW  Elec       q    Type
REMARK                         _______ _______ _______ _____ _____    ______ ____
ROOT
ATOM      1  CA  LEU A   1      21.376  30.368   6.508  0.00  0.00    +0.133 C 
ENDROOT
BRANCH   1   2
ATOM      2  N   LEU A   1      20.660  31.583   6.841  0.00  0.00    -0.239 NA
ATOM      3  H   LEU A   1      19.983  31.549   7.630  0.00  0.00    +0.142 HD
ENDBRANCH   1   2
BRANCH   1   4
ATOM      4  C   LEU A   1      20.497  29.466   5.650  0.00  0.00    +0.224 C 
ATOM      5  O   LEU A   1      19.310  29.319   5.959  0.00  0.00    -0.287 OA
ENDBRANCH   1   4
BRANCH   1   6
ATOM      6  CB  LEU A   1      21.779  29.596   7.748  0.00  0.00    +0.025 C 
BRANCH   6   7
ATOM      7  CG  LEU A   1      22.477  30.416   8.839  0.00  0.00    +0.002 C 
ATOM      8  CD2 LEU A   1      22.827  29.532  10.025  0.00  0.00    +0.000 C 
ATOM      9  CD1 LEU A   1      23.713  31.125   8.279  0.00  0.00    +0.000 C 
ENDBRANCH   6   7
ENDBRANCH   1   6
TORSDOF 4
REMARK  Name = ../refined-set-2016/2aod/2aod_pocket.pdb
REMARK  239 active torsions:
REMARK  status: ('A' for Active; 'I' for Inactive)
REMARK    1  A    between atoms: _1  and  _3
REMARK    2  A    between atoms: _3  and  _4
REMARK    3  A    between atoms: _3  and  _6
REMARK    4  A    between atoms: _6  and  _7
REMARK    5  A    between atoms: _7  and  _8
REMARK    6  A    between atoms: _8  and  _9
REMARK    7  A    between atoms: _18  and  _20
REMARK    8  A    between atoms: _20  and  _21
REMARK    9  A    between atoms: _20  and  _23
REMARK   10  A    between atoms: _23  and  _24
REMARK   11  A    between atoms: _27  and  _29
REMARK   12  A    between atoms: _29  and  _30
REMARK   13  A    between atoms: _29  and  _32
REMARK   14  A    between atoms: _32  and  _33
REMARK   15  A    between atoms: _33  and  _34
REMARK   16  A    between atoms: _37  and  _39
REMARK   17  A    between atoms: _39  and  _40
REMARK   18  A    between atoms: _39  and  _42
REMARK   19  A    between atoms: _42  and  _43
REMARK   20  A    between atoms: _46  and  _48
REMARK   21  A    between atoms: _48  and  _49
REMARK   22  A    between atoms: _48  and  _51
REMARK   23  A    between atoms: _51  and  _52
REMARK   24  A    between atoms: _55  and  _57
REMARK   25  A    between atoms: _57  and  _58
REMARK   26  A    between atoms: _57  and  _60
REMARK   27  A    between atoms: _60  and  _61
REMARK   28  A    between atoms: _64  and  _66
REMARK   29  A    between atoms: _66  and  _67
REMARK   30  A    between atoms: _69  and  _71
REMARK   31  A    between atoms: _71  and  _72
REMARK   32  A    between atoms: _75  and  _77
REMARK   33  A    between atoms: _77  and  _78
REMARK   34  A    between atoms: _77  and  _80
REMARK   35  A    between atoms: _80  and  _81
REMARK   36  A    between atoms: _84  and  _86
REMARK   37  A    between atoms: _86  and  _87
REMARK   38  A    between atoms: _86  and  _89
REMARK   39  A    between atoms: _89  and  _90
REMARK   40  A    between atoms: _93  and  _95
REMARK   41  A    between atoms: _95  and  _96
REMARK   42  A    between atoms: _95  and  _98
REMARK   43  A    between atoms: _98  and  _99
REMARK   44  A    between atoms: _102  and  _104
REMARK   45  A    between atoms: _104  and  _105
REMARK   46  A    between atoms: _104  and  _107
REMARK   47  A    between atoms: _110  and  _112
REMARK   48  A    between atoms: _112  and  _113
REMARK   49  A    between atoms: _112  and  _115
REMARK   50  A    between atoms: _115  and  _116
REMARK   51  A    between atoms: _116  and  _117
REMARK   52  A    between atoms: _117  and  _118
REMARK   53  A    between atoms: _118  and  _119
REMARK   54  A    between atoms: _123  and  _125
REMARK   55  A    between atoms: _125  and  _126
REMARK   56  A    between atoms: _125  and  _128
REMARK   57  A    between atoms: _128  and  _129
REMARK   58  A    between atoms: _129  and  _130
REMARK   59  A    between atoms: _132  and  _134
REMARK   60  A    between atoms: _134  and  _135
REMARK   61  A    between atoms: _134  and  _137
REMARK   62  A    between atoms: _137  and  _138
REMARK   63  A    between atoms: _141  and  _143
REMARK   64  A    between atoms: _143  and  _144
REMARK   65  A    between atoms: _146  and  _148
REMARK   66  A    between atoms: _148  and  _149
REMARK   67  A    between atoms: _151  and  _153
REMARK   68  A    between atoms: _153  and  _154
REMARK   69  A    between atoms: _153  and  _156
REMARK   70  A    between atoms: _156  and  _157
REMARK   71  A    between atoms: _160  and  _162
REMARK   72  A    between atoms: _162  and  _163
REMARK   73  A    between atoms: _165  and  _167
REMARK   74  A    between atoms: _167  and  _168
REMARK   75  A    between atoms: _170  and  _172
REMARK   76  A    between atoms: _172  and  _173
REMARK   77  A    between atoms: _172  and  _175
REMARK   78  A    between atoms: _175  and  _176
REMARK   79  A    between atoms: _182  and  _184
REMARK   80  A    between atoms: _184  and  _185
REMARK   81  A    between atoms: _184  and  _187
REMARK   82  A    between atoms: _187  and  _188
REMARK   83  A    between atoms: _191  and  _193
REMARK   84  A    between atoms: _193  and  _194
REMARK   85  A    between atoms: _193  and  _196
REMARK   86  A    between atoms: _199  and  _201
REMARK   87  A    between atoms: _201  and  _202
REMARK   88  A    between atoms: _201  and  _204
REMARK   89  A    between atoms: _204  and  _205
REMARK   90  A    between atoms: _209  and  _210
REMARK   91  A    between atoms: _215  and  _217
REMARK   92  A    between atoms: _217  and  _218
REMARK   93  A    between atoms: _217  and  _220
REMARK   94  A    between atoms: _220  and  _221
REMARK   95  A    between atoms: _225  and  _226
REMARK   96  A    between atoms: _231  and  _233
REMARK   97  A    between atoms: _233  and  _234
REMARK   98  A    between atoms: _233  and  _236
REMARK   99  A    between atoms: _239  and  _241
REMARK  100  A    between atoms: _241  and  _242
REMARK  101  A    between atoms: _241  and  _244
REMARK  102  A    between atoms: _244  and  _245
REMARK  103  A    between atoms: _250  and  _252
REMARK  104  A    between atoms: _252  and  _253
REMARK  105  A    between atoms: _252  and  _255
REMARK  106  A    between atoms: _255  and  _256
REMARK  107  A    between atoms: _259  and  _261
REMARK  108  A    between atoms: _261  and  _262
REMARK  109  A    between atoms: _261  and  _264
REMARK  110  A    between atoms: _264  and  _265
REMARK  111  A    between atoms: _268  and  _270
REMARK  112  A    between atoms: _270  and  _271
REMARK  113  A    between atoms: _273  and  _275
REMARK  114  A    between atoms: _275  and  _276
REMARK  115  A    between atoms: _275  and  _278
REMARK  116  A    between atoms: _278  and  _279
REMARK  117  A    between atoms: _279  and  _280
REMARK  118  A    between atoms: _280  and  _281
REMARK  119  A    between atoms: _290  and  _292
REMARK  120  A    between atoms: _292  and  _293
REMARK  121  A    between atoms: _292  and  _295
REMARK  122  A    between atoms: _295  and  _296
REMARK  123  A    between atoms: _301  and  _303
REMARK  124  A    between atoms: _303  and  _304
REMARK  125  A    between atoms: _303  and  _306
REMARK  126  A    between atoms: _306  and  _307
REMARK  127  A    between atoms: _307  and  _308
REMARK  128  A    between atoms: _308  and  _309
REMARK  129  A    between atoms: _318  and  _320
REMARK  130  A    between atoms: _320  and  _321
REMARK  131  A    between atoms: _320  and  _323
REMARK  132  A    between atoms: _323  and  _324
REMARK  133  A    between atoms: _327  and  _329
REMARK  134  A    between atoms: _329  and  _330
REMARK  135  A    between atoms: _329  and  _332
REMARK  136  A    between atoms: _332  and  _333
REMARK  137  A    between atoms: _336  and  _338
REMARK  138  A    between atoms: _338  and  _339
REMARK  139  A    between atoms: _338  and  _341
REMARK  140  A    between atoms: _341  and  _342
REMARK  141  A    between atoms: _345  and  _347
REMARK  142  A    between atoms: _347  and  _348
REMARK  143  A    between atoms: _347  and  _350
REMARK  144  A    between atoms: _350  and  _351
REMARK  145  A    between atoms: _354  and  _356
REMARK  146  A    between atoms: _356  and  _357
REMARK  147  A    between atoms: _359  and  _361
REMARK  148  A    between atoms: _361  and  _362
REMARK  149  A    between atoms: _365  and  _367
REMARK  150  A    between atoms: _367  and  _368
REMARK  151  A    between atoms: _367  and  _370
REMARK  152  A    between atoms: _370  and  _371
REMARK  153  A    between atoms: _374  and  _376
REMARK  154  A    between atoms: _376  and  _377
REMARK  155  A    between atoms: _376  and  _379
REMARK  156  A    between atoms: _379  and  _380
REMARK  157  A    between atoms: _383  and  _385
REMARK  158  A    between atoms: _385  and  _386
REMARK  159  A    between atoms: _385  and  _388
REMARK  160  A    between atoms: _388  and  _389
REMARK  161  A    between atoms: _392  and  _394
REMARK  162  A    between atoms: _394  and  _395
REMARK  163  A    between atoms: _394  and  _397
REMARK  164  A    between atoms: _400  and  _402
REMARK  165  A    between atoms: _402  and  _403
REMARK  166  A    between atoms: _402  and  _405
REMARK  167  A    between atoms: _405  and  _406
REMARK  168  A    between atoms: _406  and  _407
REMARK  169  A    between atoms: _407  and  _408
REMARK  170  A    between atoms: _408  and  _409
REMARK  171  A    between atoms: _413  and  _415
REMARK  172  A    between atoms: _415  and  _416
REMARK  173  A    between atoms: _415  and  _418
REMARK  174  A    between atoms: _418  and  _419
REMARK  175  A    between atoms: _419  and  _420
REMARK  176  A    between atoms: _422  and  _424
REMARK  177  A    between atoms: _424  and  _425
REMARK  178  A    between atoms: _424  and  _427
REMARK  179  A    between atoms: _427  and  _428
REMARK  180  A    between atoms: _431  and  _433
REMARK  181  A    between atoms: _433  and  _434
REMARK  182  A    between atoms: _436  and  _438
REMARK  183  A    between atoms: _438  and  _439
REMARK  184  A    between atoms: _441  and  _443
REMARK  185  A    between atoms: _443  and  _444
REMARK  186  A    between atoms: _443  and  _446
REMARK  187  A    between atoms: _446  and  _447
REMARK  188  A    between atoms: _450  and  _452
REMARK  189  A    between atoms: _452  and  _453
REMARK  190  A    between atoms: _455  and  _457
REMARK  191  A    between atoms: _457  and  _458
REMARK  192  A    between atoms: _460  and  _462
REMARK  193  A    between atoms: _462  and  _463
REMARK  194  A    between atoms: _462  and  _465
REMARK  195  A    between atoms: _465  and  _466
REMARK  196  A    between atoms: _472  and  _474
REMARK  197  A    between atoms: _474  and  _475
REMARK  198  A    between atoms: _474  and  _477
REMARK  199  A    between atoms: _477  and  _478
REMARK  200  A    between atoms: _481  and  _483
REMARK  201  A    between atoms: _483  and  _484
REMARK  202  A    between atoms: _483  and  _486
REMARK  203  A    between atoms: _489  and  _491
REMARK  204  A    between atoms: _491  and  _492
REMARK  205  A    between atoms: _491  and  _494
REMARK  206  A    between atoms: _494  and  _495
REMARK  207  A    between atoms: _499  and  _500
REMARK  208  A    between atoms: _505  and  _507
REMARK  209  A    between atoms: _507  and  _508
REMARK  210  A    between atoms: _507  and  _510
REMARK  211  A    between atoms: _510  and  _511
REMARK  212  A    between atoms: _515  and  _516
REMARK  213  A    between atoms: _521  and  _523
REMARK  214  A    between atoms: _523  and  _524
REMARK  215  A    between atoms: _523  and  _526
REMARK  216  A    between atoms: _529  and  _531
REMARK  217  A    between atoms: _531  and  _532
REMARK  218  A    between atoms: _531  and  _534
REMARK  219  A    between atoms: _534  and  _535
REMARK  220  A    between atoms: _540  and  _542
REMARK  221  A    between atoms: _542  and  _543
REMARK  222  A    between atoms: _542  and  _545
REMARK  223  A    between atoms: _545  and  _546
REMARK  224  A    between atoms: _549  and  _551
REMARK  225  A    between atoms: _551  and  _552
REMARK  226  A    between atoms: _551  and  _554
REMARK  227  A    between atoms: _554  and  _555
REMARK  228  A    between atoms: _558  and  _560
REMARK  229  A    between atoms: _560  and  _561
REMARK  230  A    between atoms: _563  and  _565
REMARK  231  A    between atoms: _565  and  _566
REMARK  232  A    between atoms: _565  and  _568
REMARK  233  A    between atoms: _568  and  _569
REMARK  234  A    between atoms: _569  and  _570
REMARK  235  A    between atoms: _570  and  _571
REMARK  236  A    between atoms: _580  and  _582
REMARK  237  A    between atoms: _582  and  _583
REMARK  238  A    between atoms: _582  and  _585
REMARK  239  A    between atoms: _585  and  _586
REMARK                            x       y       z     vdW  Elec       q    Type
REMARK                         _______ _______ _______ _____ _____    ______ ____
ROOT
ATOM      1  CA  ILE A   6      13.316  28.202  11.328  0.00  0.00    +0.149 C 
ENDROOT
BRANCH   1   2
ATOM      2  C   ILE A   6      13.642  29.688  11.312  0.00  0.00    +0.241 C 
ATOM      3  N   ILE A   7      12.834  30.485  12.005  0.00  0.00    -0.297 N 
ATOM      4  H   ILE A   7      11.938  30.084  12.350  0.00  0.00    +0.150 HD
ATOM      5  O   ILE A   6      14.614  30.111  10.699  0.00  0.00    -0.273 OA
BRANCH   3   6
ATOM      6  CA  ILE A   7      13.116  31.880  12.315  0.00  0.00    +0.149 C 
BRANCH   6   7
ATOM      7  C   ILE A   7      13.757  31.889  13.695  0.00  0.00    +0.241 C 
ATOM      8  O   ILE A   7      13.079  31.520  14.675  0.00  0.00    -0.273 OA
ATOM      9  N   GLY A   8      15.032  32.283  13.747  0.00  0.00    -0.295 N 
ATOM     10  H   GLY A   8      15.518  32.558  12.869  0.00  0.00    +0.150 HD
BRANCH   9  11
ATOM     11  CA  GLY A   8      15.744  32.334  14.992  0.00  0.00    +0.176 C 
BRANCH  11  12
ATOM     12  C   GLY A   8      15.838  33.727  15.577  0.00  0.00    +0.243 C 
ATOM     13  N   ARG A   9      16.584  33.804  16.698  0.00  0.00    -0.297 N 
ATOM     14  H   ARG A   9      17.148  32.986  17.006  0.00  0.00    +0.150 HD
ATOM     15  O   GLY A   8      15.275  34.679  15.051  0.00  0.00    -0.273 OA
BRANCH  13  16
ATOM     16  CA  ARG A   9      16.598  35.036  17.478  0.00  0.00    +0.149 C 
BRANCH  16  17
ATOM     17  C   ARG A   9      17.116  36.214  16.690  0.00  0.00    +0.241 C 
ATOM     18  O   ARG A   9      16.702  37.326  17.012  0.00  0.00    -0.273 OA
ATOM     19  N   ASN A  10      18.020  35.987  15.736  0.00  0.00    -0.298 N 
ATOM     20  H   ASN A  10      18.337  35.022  15.511  0.00  0.00    +0.150 HD
BRANCH  19  21
ATOM     21  CA  ASN A  10      18.551  37.154  15.015  0.00  0.00    +0.146 C 
BRANCH  21  22
ATOM     22  C   ASN A  10      17.469  37.945  14.302  0.00  0.00    +0.227 C 
ATOM     23  O   ASN A  10      17.663  39.155  14.105  0.00  0.00    -0.286 OA
ENDBRANCH  21  22
BRANCH  21  24
ATOM     24  CB  ASN A  10      19.628  36.688  14.039  0.00  0.00    +0.112 C 
BRANCH  24  25
ATOM     25  CG  ASN A  10      19.112  35.970  12.817  0.00  0.00    +0.222 C 
ATOM     26  OD1 ASN A  10      18.351  35.015  12.928  0.00  0.00    -0.275 OA
ATOM     27  ND2 ASN A  10      19.528  36.498  11.674  0.00  0.00    -0.329 N 
ATOM     28 HD21 ASN A  10      20.176  37.311  11.682  0.00  0.00    +0.145 HD
ATOM     29 HD22 ASN A  10      19.206  36.099  10.769  0.00  0.00    +0.145 HD
ENDBRANCH  24  25
ENDBRANCH  21  24
ENDBRANCH  19  21
ENDBRANCH  16  17
BRANCH  16  30
ATOM     30  CB  ARG A   9      17.428  34.839  18.735  0.00  0.00    +0.033 C 
BRANCH  30  31
ATOM     31  CG  ARG A   9      16.822  33.855  19.710  0.00  0.00    +0.045 C 
BRANCH  31  32
ATOM     32  CD  ARG A   9      17.509  33.769  21.058  0.00  0.00    +0.174 C 
BRANCH  32  33
ATOM     33  NE  ARG A   9      18.897  33.305  20.911  0.00  0.00    -0.265 N 
ATOM     34  CZ  ARG A   9      19.993  34.066  20.862  0.00  0.00    +0.342 C 
ATOM     35  NH2 ARG A   9      19.973  35.397  20.985  0.00  0.00    -0.292 N 
ATOM     36 HH21 ARG A   9      19.070  35.893  21.127  0.00  0.00    +0.255 HD
ATOM     37 HH22 ARG A   9      20.861  35.937  20.938  0.00  0.00    +0.255 HD
ATOM     38  NH1 ARG A   9      21.194  33.498  20.708  0.00  0.00    -0.292 N 
ATOM     39 HH11 ARG A   9      22.048  34.090  20.670  0.00  0.00    +0.255 HD
ATOM     40 HH12 ARG A   9      21.274  32.464  20.627  0.00  0.00    +0.255 HD
ATOM     41  HE  ARG A   9      19.040  32.277  20.838  0.00  0.00    +0.259 HD
ENDBRANCH  32  33
ENDBRANCH  31  32
ENDBRANCH  30  31
ENDBRANCH  16  30
ENDBRANCH  13  16
ENDBRANCH  11  12
ENDBRANCH   9  11
ENDBRANCH   6   7
BRANCH   6  42
ATOM     42  CB  ILE A   7      11.862  32.770  12.288  0.00  0.00    +0.027 C 
ATOM     43  CG2 ILE A   7      12.182  34.229  12.606  0.00  0.00    +0.002 C 
BRANCH  42  44
ATOM     44  CG1 ILE A   7      11.073  32.686  10.979  0.00  0.00    +0.002 C 
ATOM     45  CD1 ILE A   7      11.861  32.921   9.686  0.00  0.00    +0.000 C 
ENDBRANCH  42  44
ENDBRANCH   6  42
ENDBRANCH   3   6
ENDBRANCH   1   2
BRANCH   1  48
ATOM     46  C   ASN A   5      12.169  27.045   9.482  0.00  0.00    +0.241 C 
ATOM     47  O   ASN A   5      11.100  26.915  10.080  0.00  0.00    -0.273 OA
ATOM     48  N   ILE A   6      13.203  27.683   9.970  0.00  0.00    -0.297 N 
ATOM     49  H   ILE A   6      14.013  27.832   9.335  0.00  0.00    +0.150 HD
BRANCH  46  50
ATOM     50  CA  ASN A   5      12.274  26.422   8.093  0.00  0.00    +0.158 C 
BRANCH  50  53
ATOM     51  C   VAL A   4      12.522  24.149   8.831  0.00  0.00    +0.241 C 
ATOM     52  O   VAL A   4      13.670  24.418   9.229  0.00  0.00    -0.273 OA
ATOM     53  N   ASN A   5      11.795  25.040   8.185  0.00  0.00    -0.297 N 
ATOM     54  H   ASN A   5      10.893  24.765   7.746  0.00  0.00    +0.150 HD
BRANCH  51  55
ATOM     55  CA  VAL A   4      11.955  22.758   9.098  0.00  0.00    +0.149 C 
BRANCH  55  57
ATOM     56  C   PRO A   3      12.825  20.586   8.225  0.00  0.00    +0.245 C 
ATOM     57  N   VAL A   4      12.986  21.765   8.784  0.00  0.00    -0.297 N 
ATOM     58  H   VAL A   4      13.962  22.024   9.033  0.00  0.00    +0.150 HD
ATOM     59  O   PRO A   3      11.737  20.206   7.799  0.00  0.00    -0.273 OA
BRANCH  56  65
ATOM     60  C   THR A   2      15.715  21.135   7.281  0.00  0.00    +0.247 C 
ATOM     61  N   PRO A   3      15.301  20.328   8.263  0.00  0.00    -0.264 N 
ATOM     62  CD  PRO A   3      15.995  19.979   9.519  0.00  0.00    +0.120 C 
ATOM     63  CG  PRO A   3      15.228  18.842  10.092  0.00  0.00    -0.007 C 
ATOM     64  CB  PRO A   3      13.991  18.690   9.313  0.00  0.00    -0.000 C 
ATOM     65  CA  PRO A   3      14.016  19.643   8.122  0.00  0.00    +0.175 C 
ATOM     66  O   THR A   2      15.030  21.320   6.273  0.00  0.00    -0.273 OA
BRANCH  60  67
ATOM     67  CA  THR A   2      17.036  21.858   7.413  0.00  0.00    +0.176 C 
BRANCH  67  70
ATOM     68  C   PRO A   1      18.415  20.821   5.713  0.00  0.00    +0.239 C 
ATOM     69  O   PRO A   1      18.510  19.802   6.404  0.00  0.00    -0.274 OA
ATOM     70  N   THR A   2      17.736  21.888   6.132  0.00  0.00    -0.295 N 
ATOM     71  H   THR A   2      17.704  22.746   5.544  0.00  0.00    +0.150 HD
BRANCH  68  73
ATOM     72  N   PRO A   1      19.981  22.046   4.214  0.00  0.00    -0.210 NA
ATOM     73  CA  PRO A   1      19.039  20.922   4.330  0.00  0.00    +0.149 C 
ATOM     74  CB  PRO A   1      19.919  19.719   4.016  0.00  0.00    +0.028 C 
ATOM     75  CG  PRO A   1      21.268  20.127   4.539  0.00  0.00    +0.021 C 
ATOM     76  CD  PRO A   1      21.375  21.606   4.257  0.00  0.00    +0.089 C 
ENDBRANCH  68  73
ENDBRANCH  67  70
BRANCH  67  77
ATOM     77  CB  THR A   2      16.811  23.298   7.904  0.00  0.00    +0.137 C 
ATOM     78  CG2 THR A   2      16.011  24.169   6.977  0.00  0.00    +0.034 C 
BRANCH  77  79
ATOM     79  OG1 THR A   2      16.094  23.147   9.132  0.00  0.00    -0.382 OA
ATOM     80  HG1 THR A   2      15.908  24.040   9.516  0.00  0.00    +0.210 HD
ENDBRANCH  77  79
ENDBRANCH  67  77
ENDBRANCH  60  67
ENDBRANCH  56  65
ENDBRANCH  55  57
BRANCH  55  81
ATOM     81  CB  VAL A   4      11.516  22.620  10.585  0.00  0.00    +0.027 C 
ATOM     82  CG2 VAL A   4      10.496  23.609  11.062  0.00  0.00    +0.002 C 
ATOM     83  CG1 VAL A   4      10.913  21.236  10.828  0.00  0.00    +0.002 C 
ENDBRANCH  55  81
ENDBRANCH  51  55
ENDBRANCH  50  53
BRANCH  50  84
ATOM     84  CB  ASN A   5      11.460  27.217   7.085  0.00  0.00    +0.114 C 
BRANCH  84  85
ATOM     85  CG  ASN A   5      11.579  26.707   5.663  0.00  0.00    +0.222 C 
ATOM     86  OD1 ASN A   5      12.671  26.339   5.243  0.00  0.00    -0.275 OA
ATOM     87  ND2 ASN A   5      10.399  26.704   5.000  0.00  0.00    -0.329 N 
ATOM     88 HD21 ASN A   5       9.537  27.045   5.471  0.00  0.00    +0.145 HD
ATOM     89 HD22 ASN A   5      10.354  26.361   4.019  0.00  0.00    +0.145 HD
ENDBRANCH  84  85
ENDBRANCH  50  84
ENDBRANCH  46  50
ENDBRANCH   1  48
BRANCH   1  90
ATOM     90  CB  ILE A   6      14.435  27.430  12.069  0.00  0.00    +0.027 C 
ATOM     91  CG2 ILE A   6      14.829  28.062  13.400  0.00  0.00    +0.002 C 
BRANCH  90  92
ATOM     92  CG1 ILE A   6      14.065  25.951  12.266  0.00  0.00    +0.002 C 
ATOM     93  CD1 ILE A   6      15.249  25.071  12.583  0.00  0.00    +0.000 C 
ENDBRANCH  90  92
ENDBRANCH   1  90
TORSDOF 33
REMARK  Name = ../refined-set-2016/2aod/2aod_pocket.pdb
REMARK  239 active torsions:
REMARK  status: ('A' for Active; 'I' for Inactive)
REMARK    1  A    between atoms: _1  and  _3
REMARK    2  A    between atoms: _3  and  _4
REMARK    3  A    between atoms: _3  and  _6
REMARK    4  A    between atoms: _6  and  _7
REMARK    5  A    between atoms: _7  and  _8
REMARK    6  A    between atoms: _8  and  _9
REMARK    7  A    between atoms: _18  and  _20
REMARK    8  A    between atoms: _20  and  _21
REMARK    9  A    between atoms: _20  and  _23
REMARK   10  A    between atoms: _23  and  _24
REMARK   11  A    between atoms: _27  and  _29
REMARK   12  A    between atoms: _29  and  _30
REMARK   13  A    between atoms: _29  and  _32
REMARK   14  A    between atoms: _32  and  _33
REMARK   15  A    between atoms: _33  and  _34
REMARK   16  A    between atoms: _37  and  _39
REMARK   17  A    between atoms: _39  and  _40
REMARK   18  A    between atoms: _39  and  _42
REMARK   19  A    between atoms: _42  and  _43
REMARK   20  A    between atoms: _46  and  _48
REMARK   21  A    between atoms: _48  and  _49
REMARK   22  A    between atoms: _48  and  _51
REMARK   23  A    between atoms: _51  and  _52
REMARK   24  A    between atoms: _55  and  _57
REMARK   25  A    between atoms: _57  and  _58
REMARK   26  A    between atoms: _57  and  _60
REMARK   27  A    between atoms: _60  and  _61
REMARK   28  A    between atoms: _64  and  _66
REMARK   29  A    between atoms: _66  and  _67
REMARK   30  A    between atoms: _69  and  _71
REMARK   31  A    between atoms: _71  and  _72
REMARK   32  A    between atoms: _75  and  _77
REMARK   33  A    between atoms: _77  and  _78
REMARK   34  A    between atoms: _77  and  _80
REMARK   35  A    between atoms: _80  and  _81
REMARK   36  A    between atoms: _84  and  _86
REMARK   37  A    between atoms: _86  and  _87
REMARK   38  A    between atoms: _86  and  _89
REMARK   39  A    between atoms: _89  and  _90
REMARK   40  A    between atoms: _93  and  _95
REMARK   41  A    between atoms: _95  and  _96
REMARK   42  A    between atoms: _95  and  _98
REMARK   43  A    between atoms: _98  and  _99
REMARK   44  A    between atoms: _102  and  _104
REMARK   45  A    between atoms: _104  and  _105
REMARK   46  A    between atoms: _104  and  _107
REMARK   47  A    between atoms: _110  and  _112
REMARK   48  A    between atoms: _112  and  _113
REMARK   49  A    between atoms: _112  and  _115
REMARK   50  A    between atoms: _115  and  _116
REMARK   51  A    between atoms: _116  and  _117
REMARK   52  A    between atoms: _117  and  _118
REMARK   53  A    between atoms: _118  and  _119
REMARK   54  A    between atoms: _123  and  _125
REMARK   55  A    between atoms: _125  and  _126
REMARK   56  A    between atoms: _125  and  _128
REMARK   57  A    between atoms: _128  and  _129
REMARK   58  A    between atoms: _129  and  _130
REMARK   59  A    between atoms: _132  and  _134
REMARK   60  A    between atoms: _134  and  _135
REMARK   61  A    between atoms: _134  and  _137
REMARK   62  A    between atoms: _137  and  _138
REMARK   63  A    between atoms: _141  and  _143
REMARK   64  A    between atoms: _143  and  _144
REMARK   65  A    between atoms: _146  and  _148
REMARK   66  A    between atoms: _148  and  _149
REMARK   67  A    between atoms: _151  and  _153
REMARK   68  A    between atoms: _153  and  _154
REMARK   69  A    between atoms: _153  and  _156
REMARK   70  A    between atoms: _156  and  _157
REMARK   71  A    between atoms: _160  and  _162
REMARK   72  A    between atoms: _162  and  _163
REMARK   73  A    between atoms: _165  and  _167
REMARK   74  A    between atoms: _167  and  _168
REMARK   75  A    between atoms: _170  and  _172
REMARK   76  A    between atoms: _172  and  _173
REMARK   77  A    between atoms: _172  and  _175
REMARK   78  A    between atoms: _175  and  _176
REMARK   79  A    between atoms: _182  and  _184
REMARK   80  A    between atoms: _184  and  _185
REMARK   81  A    between atoms: _184  and  _187
REMARK   82  A    between atoms: _187  and  _188
REMARK   83  A    between atoms: _191  and  _193
REMARK   84  A    between atoms: _193  and  _194
REMARK   85  A    between atoms: _193  and  _196
REMARK   86  A    between atoms: _199  and  _201
REMARK   87  A    between atoms: _201  and  _202
REMARK   88  A    between atoms: _201  and  _204
REMARK   89  A    between atoms: _204  and  _205
REMARK   90  A    between atoms: _209  and  _210
REMARK   91  A    between atoms: _215  and  _217
REMARK   92  A    between atoms: _217  and  _218
REMARK   93  A    between atoms: _217  and  _220
REMARK   94  A    between atoms: _220  and  _221
REMARK   95  A    between atoms: _225  and  _226
REMARK   96  A    between atoms: _231  and  _233
REMARK   97  A    between atoms: _233  and  _234
REMARK   98  A    between atoms: _233  and  _236
REMARK   99  A    between atoms: _239  and  _241
REMARK  100  A    between atoms: _241  and  _242
REMARK  101  A    between atoms: _241  and  _244
REMARK  102  A    between atoms: _244  and  _245
REMARK  103  A    between atoms: _250  and  _252
REMARK  104  A    between atoms: _252  and  _253
REMARK  105  A    between atoms: _252  and  _255
REMARK  106  A    between atoms: _255  and  _256
REMARK  107  A    between atoms: _259  and  _261
REMARK  108  A    between atoms: _261  and  _262
REMARK  109  A    between atoms: _261  and  _264
REMARK  110  A    between atoms: _264  and  _265
REMARK  111  A    between atoms: _268  and  _270
REMARK  112  A    between atoms: _270  and  _271
REMARK  113  A    between atoms: _273  and  _275
REMARK  114  A    between atoms: _275  and  _276
REMARK  115  A    between atoms: _275  and  _278
REMARK  116  A    between atoms: _278  and  _279
REMARK  117  A    between atoms: _279  and  _280
REMARK  118  A    between atoms: _280  and  _281
REMARK  119  A    between atoms: _290  and  _292
REMARK  120  A    between atoms: _292  and  _293
REMARK  121  A    between atoms: _292  and  _295
REMARK  122  A    between atoms: _295  and  _296
REMARK  123  A    between atoms: _301  and  _303
REMARK  124  A    between atoms: _303  and  _304
REMARK  125  A    between atoms: _303  and  _306
REMARK  126  A    between atoms: _306  and  _307
REMARK  127  A    between atoms: _307  and  _308
REMARK  128  A    between atoms: _308  and  _309
REMARK  129  A    between atoms: _318  and  _320
REMARK  130  A    between atoms: _320  and  _321
REMARK  131  A    between atoms: _320  and  _323
REMARK  132  A    between atoms: _323  and  _324
REMARK  133  A    between atoms: _327  and  _329
REMARK  134  A    between atoms: _329  and  _330
REMARK  135  A    between atoms: _329  and  _332
REMARK  136  A    between atoms: _332  and  _333
REMARK  137  A    between atoms: _336  and  _338
REMARK  138  A    between atoms: _338  and  _339
REMARK  139  A    between atoms: _338  and  _341
REMARK  140  A    between atoms: _341  and  _342
REMARK  141  A    between atoms: _345  and  _347
REMARK  142  A    between atoms: _347  and  _348
REMARK  143  A    between atoms: _347  and  _350
REMARK  144  A    between atoms: _350  and  _351
REMARK  145  A    between atoms: _354  and  _356
REMARK  146  A    between atoms: _356  and  _357
REMARK  147  A    between atoms: _359  and  _361
REMARK  148  A    between atoms: _361  and  _362
REMARK  149  A    between atoms: _365  and  _367
REMARK  150  A    between atoms: _367  and  _368
REMARK  151  A    between atoms: _367  and  _370
REMARK  152  A    between atoms: _370  and  _371
REMARK  153  A    between atoms: _374  and  _376
REMARK  154  A    between atoms: _376  and  _377
REMARK  155  A    between atoms: _376  and  _379
REMARK  156  A    between atoms: _379  and  _380
REMARK  157  A    between atoms: _383  and  _385
REMARK  158  A    between atoms: _385  and  _386
REMARK  159  A    between atoms: _385  and  _388
REMARK  160  A    between atoms: _388  and  _389
REMARK  161  A    between atoms: _392  and  _394
REMARK  162  A    between atoms: _394  and  _395
REMARK  163  A    between atoms: _394  and  _397
REMARK  164  A    between atoms: _400  and  _402
REMARK  165  A    between atoms: _402  and  _403
REMARK  166  A    between atoms: _402  and  _405
REMARK  167  A    between atoms: _405  and  _406
REMARK  168  A    between atoms: _406  and  _407
REMARK  169  A    between atoms: _407  and  _408
REMARK  170  A    between atoms: _408  and  _409
REMARK  171  A    between atoms: _413  and  _415
REMARK  172  A    between atoms: _415  and  _416
REMARK  173  A    between atoms: _415  and  _418
REMARK  174  A    between atoms: _418  and  _419
REMARK  175  A    between atoms: _419  and  _420
REMARK  176  A    between atoms: _422  and  _424
REMARK  177  A    between atoms: _424  and  _425
REMARK  178  A    between atoms: _424  and  _427
REMARK  179  A    between atoms: _427  and  _428
REMARK  180  A    between atoms: _431  and  _433
REMARK  181  A    between atoms: _433  and  _434
REMARK  182  A    between atoms: _436  and  _438
REMARK  183  A    between atoms: _438  and  _439
REMARK  184  A    between atoms: _441  and  _443
REMARK  185  A    between atoms: _443  and  _444
REMARK  186  A    between atoms: _443  and  _446
REMARK  187  A    between atoms: _446  and  _447
REMARK  188  A    between atoms: _450  and  _452
REMARK  189  A    between atoms: _452  and  _453
REMARK  190  A    between atoms: _455  and  _457
REMARK  191  A    between atoms: _457  and  _458
REMARK  192  A    between atoms: _460  and  _462
REMARK  193  A    between atoms: _462  and  _463
REMARK  194  A    between atoms: _462  and  _465
REMARK  195  A    between atoms: _465  and  _466
REMARK  196  A    between atoms: _472  and  _474
REMARK  197  A    between atoms: _474  and  _475
REMARK  198  A    between atoms: _474  and  _477
REMARK  199  A    between atoms: _477  and  _478
REMARK  200  A    between atoms: _481  and  _483
REMARK  201  A    between atoms: _483  and  _484
REMARK  202  A    between atoms: _483  and  _486
REMARK  203  A    between atoms: _489  and  _491
REMARK  204  A    between atoms: _491  and  _492
REMARK  205  A    between atoms: _491  and  _494
REMARK  206  A    between atoms: _494  and  _495
REMARK  207  A    between atoms: _499  and  _500
REMARK  208  A    between atoms: _505  and  _507
REMARK  209  A    between atoms: _507  and  _508
REMARK  210  A    between atoms: _507  and  _510
REMARK  211  A    between atoms: _510  and  _511
REMARK  212  A    between atoms: _515  and  _516
REMARK  213  A    between atoms: _521  and  _523
REMARK  214  A    between atoms: _523  and  _524
REMARK  215  A    between atoms: _523  and  _526
REMARK  216  A    between atoms: _529  and  _531
REMARK  217  A    between atoms: _531  and  _532
REMARK  218  A    between atoms: _531  and  _534
REMARK  219  A    between atoms: _534  and  _535
REMARK  220  A    between atoms: _540  and  _542
REMARK  221  A    between atoms: _542  and  _543
REMARK  222  A    between atoms: _542  and  _545
REMARK  223  A    between atoms: _545  and  _546
REMARK  224  A    between atoms: _549  and  _551
REMARK  225  A    between atoms: _551  and  _552
REMARK  226  A    between atoms: _551  and  _554
REMARK  227  A    between atoms: _554  and  _555
REMARK  228  A    between atoms: _558  and  _560
REMARK  229  A    between atoms: _560  and  _561
REMARK  230  A    between atoms: _563  and  _565
REMARK  231  A    between atoms: _565  and  _566
REMARK  232  A    between atoms: _565  and  _568
REMARK  233  A    between atoms: _568  and  _569
REMARK  234  A    between atoms: _569  and  _570
REMARK  235  A    between atoms: _570  and  _571
REMARK  236  A    between atoms: _580  and  _582
REMARK  237  A    between atoms: _582  and  _583
REMARK  238  A    between atoms: _582  and  _585
REMARK  239  A    between atoms: _585  and  _586
REMARK                            x       y       z     vdW  Elec       q    Type
REMARK                         _______ _______ _______ _____ _____    ______ ____
ROOT
ATOM      1  NE  ARG A   1      23.079  29.939  24.569  0.00  0.00    -0.265 N 
ATOM      2  CZ  ARG A   1      23.609  28.898  25.174  0.00  0.00    +0.342 C 
ATOM      3  NH2 ARG A   1      24.567  29.114  26.072  0.00  0.00    -0.292 N 
ATOM      4 HH21 ARG A   1      25.006  28.312  26.567  0.00  0.00    +0.255 HD
ATOM      5 HH22 ARG A   1      24.877  30.085  26.278  0.00  0.00    +0.255 HD
ATOM      6  NH1 ARG A   1      23.246  27.646  24.955  0.00  0.00    -0.292 N 
ATOM      7 HH11 ARG A   1      23.710  26.872  25.471  0.00  0.00    +0.255 HD
ATOM      8 HH12 ARG A   1      22.496  27.435  24.266  0.00  0.00    +0.255 HD
ATOM      9  HE  ARG A   1      23.504  30.834  24.885  0.00  0.00    +0.259 HD
ENDROOT
BRANCH   1  10
ATOM     10  CD  ARG A   1      22.057  30.144  23.578  0.00  0.00    +0.174 C 
BRANCH  10  11
ATOM     11  CG  ARG A   1      21.558  31.577  23.533  0.00  0.00    +0.045 C 
BRANCH  11  12
ATOM     12  CB  ARG A   1      20.673  31.872  24.736  0.00  0.00    +0.029 C 
BRANCH  12  13
ATOM     13  CA  ARG A   1      19.719  33.055  24.597  0.00  0.00    +0.133 C 
BRANCH  13  14
ATOM     14  N   ARG A   1      20.487  34.302  24.449  0.00  0.00    -0.239 NA
ATOM     15  H   ARG A   1      21.527  34.293  24.447  0.00  0.00    +0.142 HD
ENDBRANCH  13  14
BRANCH  13  16
ATOM     16  C   ARG A   1      18.784  33.138  25.805  0.00  0.00    +0.224 C 
ATOM     17  O   ARG A   1      19.234  33.629  26.862  0.00  0.00    -0.287 OA
ENDBRANCH  13  16
ENDBRANCH  12  13
ENDBRANCH  11  12
ENDBRANCH  10  11
ENDBRANCH   1  10
TORSDOF 6
REMARK  Name = ../refined-set-2016/2aod/2aod_pocket.pdb
REMARK  239 active torsions:
REMARK  status: ('A' for Active; 'I' for Inactive)
REMARK    1  A    between atoms: _1  and  _3
REMARK    2  A    between atoms: _3  and  _4
REMARK    3  A    between atoms: _3  and  _6
REMARK    4  A    between atoms: _6  and  _7
REMARK    5  A    between atoms: _7  and  _8
REMARK    6  A    between atoms: _8  and  _9
REMARK    7  A    between atoms: _18  and  _20
REMARK    8  A    between atoms: _20  and  _21
REMARK    9  A    between atoms: _20  and  _23
REMARK   10  A    between atoms: _23  and  _24
REMARK   11  A    between atoms: _27  and  _29
REMARK   12  A    between atoms: _29  and  _30
REMARK   13  A    between atoms: _29  and  _32
REMARK   14  A    between atoms: _32  and  _33
REMARK   15  A    between atoms: _33  and  _34
REMARK   16  A    between atoms: _37  and  _39
REMARK   17  A    between atoms: _39  and  _40
REMARK   18  A    between atoms: _39  and  _42
REMARK   19  A    between atoms: _42  and  _43
REMARK   20  A    between atoms: _46  and  _48
REMARK   21  A    between atoms: _48  and  _49
REMARK   22  A    between atoms: _48  and  _51
REMARK   23  A    between atoms: _51  and  _52
REMARK   24  A    between atoms: _55  and  _57
REMARK   25  A    between atoms: _57  and  _58
REMARK   26  A    between atoms: _57  and  _60
REMARK   27  A    between atoms: _60  and  _61
REMARK   28  A    between atoms: _64  and  _66
REMARK   29  A    between atoms: _66  and  _67
REMARK   30  A    between atoms: _69  and  _71
REMARK   31  A    between atoms: _71  and  _72
REMARK   32  A    between atoms: _75  and  _77
REMARK   33  A    between atoms: _77  and  _78
REMARK   34  A    between atoms: _77  and  _80
REMARK   35  A    between atoms: _80  and  _81
REMARK   36  A    between atoms: _84  and  _86
REMARK   37  A    between atoms: _86  and  _87
REMARK   38  A    between atoms: _86  and  _89
REMARK   39  A    between atoms: _89  and  _90
REMARK   40  A    between atoms: _93  and  _95
REMARK   41  A    between atoms: _95  and  _96
REMARK   42  A    between atoms: _95  and  _98
REMARK   43  A    between atoms: _98  and  _99
REMARK   44  A    between atoms: _102  and  _104
REMARK   45  A    between atoms: _104  and  _105
REMARK   46  A    between atoms: _104  and  _107
REMARK   47  A    between atoms: _110  and  _112
REMARK   48  A    between atoms: _112  and  _113
REMARK   49  A    between atoms: _112  and  _115
REMARK   50  A    between atoms: _115  and  _116
REMARK   51  A    between atoms: _116  and  _117
REMARK   52  A    between atoms: _117  and  _118
REMARK   53  A    between atoms: _118  and  _119
REMARK   54  A    between atoms: _123  and  _125
REMARK   55  A    between atoms: _125  and  _126
REMARK   56  A    between atoms: _125  and  _128
REMARK   57  A    between atoms: _128  and  _129
REMARK   58  A    between atoms: _129  and  _130
REMARK   59  A    between atoms: _132  and  _134
REMARK   60  A    between atoms: _134  and  _135
REMARK   61  A    between atoms: _134  and  _137
REMARK   62  A    between atoms: _137  and  _138
REMARK   63  A    between atoms: _141  and  _143
REMARK   64  A    between atoms: _143  and  _144
REMARK   65  A    between atoms: _146  and  _148
REMARK   66  A    between atoms: _148  and  _149
REMARK   67  A    between atoms: _151  and  _153
REMARK   68  A    between atoms: _153  and  _154
REMARK   69  A    between atoms: _153  and  _156
REMARK   70  A    between atoms: _156  and  _157
REMARK   71  A    between atoms: _160  and  _162
REMARK   72  A    between atoms: _162  and  _163
REMARK   73  A    between atoms: _165  and  _167
REMARK   74  A    between atoms: _167  and  _168
REMARK   75  A    between atoms: _170  and  _172
REMARK   76  A    between atoms: _172  and  _173
REMARK   77  A    between atoms: _172  and  _175
REMARK   78  A    between atoms: _175  and  _176
REMARK   79  A    between atoms: _182  and  _184
REMARK   80  A    between atoms: _184  and  _185
REMARK   81  A    between atoms: _184  and  _187
REMARK   82  A    between atoms: _187  and  _188
REMARK   83  A    between atoms: _191  and  _193
REMARK   84  A    between atoms: _193  and  _194
REMARK   85  A    between atoms: _193  and  _196
REMARK   86  A    between atoms: _199  and  _201
REMARK   87  A    between atoms: _201  and  _202
REMARK   88  A    between atoms: _201  and  _204
REMARK   89  A    between atoms: _204  and  _205
REMARK   90  A    between atoms: _209  and  _210
REMARK   91  A    between atoms: _215  and  _217
REMARK   92  A    between atoms: _217  and  _218
REMARK   93  A    between atoms: _217  and  _220
REMARK   94  A    between atoms: _220  and  _221
REMARK   95  A    between atoms: _225  and  _226
REMARK   96  A    between atoms: _231  and  _233
REMARK   97  A    between atoms: _233  and  _234
REMARK   98  A    between atoms: _233  and  _236
REMARK   99  A    between atoms: _239  and  _241
REMARK  100  A    between atoms: _241  and  _242
REMARK  101  A    between atoms: _241  and  _244
REMARK  102  A    between atoms: _244  and  _245
REMARK  103  A    between atoms: _250  and  _252
REMARK  104  A    between atoms: _252  and  _253
REMARK  105  A    between atoms: _252  and  _255
REMARK  106  A    between atoms: _255  and  _256
REMARK  107  A    between atoms: _259  and  _261
REMARK  108  A    between atoms: _261  and  _262
REMARK  109  A    between atoms: _261  and  _264
REMARK  110  A    between atoms: _264  and  _265
REMARK  111  A    between atoms: _268  and  _270
REMARK  112  A    between atoms: _270  and  _271
REMARK  113  A    between atoms: _273  and  _275
REMARK  114  A    between atoms: _275  and  _276
REMARK  115  A    between atoms: _275  and  _278
REMARK  116  A    between atoms: _278  and  _279
REMARK  117  A    between atoms: _279  and  _280
REMARK  118  A    between atoms: _280  and  _281
REMARK  119  A    between atoms: _290  and  _292
REMARK  120  A    between atoms: _292  and  _293
REMARK  121  A    between atoms: _292  and  _295
REMARK  122  A    between atoms: _295  and  _296
REMARK  123  A    between atoms: _301  and  _303
REMARK  124  A    between atoms: _303  and  _304
REMARK  125  A    between atoms: _303  and  _306
REMARK  126  A    between atoms: _306  and  _307
REMARK  127  A    between atoms: _307  and  _308
REMARK  128  A    between atoms: _308  and  _309
REMARK  129  A    between atoms: _318  and  _320
REMARK  130  A    between atoms: _320  and  _321
REMARK  131  A    between atoms: _320  and  _323
REMARK  132  A    between atoms: _323  and  _324
REMARK  133  A    between atoms: _327  and  _329
REMARK  134  A    between atoms: _329  and  _330
REMARK  135  A    between atoms: _329  and  _332
REMARK  136  A    between atoms: _332  and  _333
REMARK  137  A    between atoms: _336  and  _338
REMARK  138  A    between atoms: _338  and  _339
REMARK  139  A    between atoms: _338  and  _341
REMARK  140  A    between atoms: _341  and  _342
REMARK  141  A    between atoms: _345  and  _347
REMARK  142  A    between atoms: _347  and  _348
REMARK  143  A    between atoms: _347  and  _350
REMARK  144  A    between atoms: _350  and  _351
REMARK  145  A    between atoms: _354  and  _356
REMARK  146  A    between atoms: _356  and  _357
REMARK  147  A    between atoms: _359  and  _361
REMARK  148  A    between atoms: _361  and  _362
REMARK  149  A    between atoms: _365  and  _367
REMARK  150  A    between atoms: _367  and  _368
REMARK  151  A    between atoms: _367  and  _370
REMARK  152  A    between atoms: _370  and  _371
REMARK  153  A    between atoms: _374  and  _376
REMARK  154  A    between atoms: _376  and  _377
REMARK  155  A    between atoms: _376  and  _379
REMARK  156  A    between atoms: _379  and  _380
REMARK  157  A    between atoms: _383  and  _385
REMARK  158  A    between atoms: _385  and  _386
REMARK  159  A    between atoms: _385  and  _388
REMARK  160  A    between atoms: _388  and  _389
REMARK  161  A    between atoms: _392  and  _394
REMARK  162  A    between atoms: _394  and  _395
REMARK  163  A    between atoms: _394  and  _397
REMARK  164  A    between atoms: _400  and  _402
REMARK  165  A    between atoms: _402  and  _403
REMARK  166  A    between atoms: _402  and  _405
REMARK  167  A    between atoms: _405  and  _406
REMARK  168  A    between atoms: _406  and  _407
REMARK  169  A    between atoms: _407  and  _408
REMARK  170  A    between atoms: _408  and  _409
REMARK  171  A    between atoms: _413  and  _415
REMARK  172  A    between atoms: _415  and  _416
REMARK  173  A    between atoms: _415  and  _418
REMARK  174  A    between atoms: _418  and  _419
REMARK  175  A    between atoms: _419  and  _420
REMARK  176  A    between atoms: _422  and  _424
REMARK  177  A    between atoms: _424  and  _425
REMARK  178  A    between atoms: _424  and  _427
REMARK  179  A    between atoms: _427  and  _428
REMARK  180  A    between atoms: _431  and  _433
REMARK  181  A    between atoms: _433  and  _434
REMARK  182  A    between atoms: _436  and  _438
REMARK  183  A    between atoms: _438  and  _439
REMARK  184  A    between atoms: _441  and  _443
REMARK  185  A    between atoms: _443  and  _444
REMARK  186  A    between atoms: _443  and  _446
REMARK  187  A    between atoms: _446  and  _447
REMARK  188  A    between atoms: _450  and  _452
REMARK  189  A    between atoms: _452  and  _453
REMARK  190  A    between atoms: _455  and  _457
REMARK  191  A    between atoms: _457  and  _458
REMARK  192  A    between atoms: _460  and  _462
REMARK  193  A    between atoms: _462  and  _463
REMARK  194  A    between atoms: _462  and  _465
REMARK  195  A    between atoms: _465  and  _466
REMARK  196  A    between atoms: _472  and  _474
REMARK  197  A    between atoms: _474  and  _475
REMARK  198  A    between atoms: _474  and  _477
REMARK  199  A    between atoms: _477  and  _478
REMARK  200  A    between atoms: _481  and  _483
REMARK  201  A    between atoms: _483  and  _484
REMARK  202  A    between atoms: _483  and  _486
REMARK  203  A    between atoms: _489  and  _491
REMARK  204  A    between atoms: _491  and  _492
REMARK  205  A    between atoms: _491  and  _494
REMARK  206  A    between atoms: _494  and  _495
REMARK  207  A    between atoms: _499  and  _500
REMARK  208  A    between atoms: _505  and  _507
REMARK  209  A    between atoms: _507  and  _508
REMARK  210  A    between atoms: _507  and  _510
REMARK  211  A    between atoms: _510  and  _511
REMARK  212  A    between atoms: _515  and  _516
REMARK  213  A    between atoms: _521  and  _523
REMARK  214  A    between atoms: _523  and  _524
REMARK  215  A    between atoms: _523  and  _526
REMARK  216  A    between atoms: _529  and  _531
REMARK  217  A    between atoms: _531  and  _532
REMARK  218  A    between atoms: _531  and  _534
REMARK  219  A    between atoms: _534  and  _535
REMARK  220  A    between atoms: _540  and  _542
REMARK  221  A    between atoms: _542  and  _543
REMARK  222  A    between atoms: _542  and  _545
REMARK  223  A    between atoms: _545  and  _546
REMARK  224  A    between atoms: _549  and  _551
REMARK  225  A    between atoms: _551  and  _552
REMARK  226  A    between atoms: _551  and  _554
REMARK  227  A    between atoms: _554  and  _555
REMARK  228  A    between atoms: _558  and  _560
REMARK  229  A    between atoms: _560  and  _561
REMARK  230  A    between atoms: _563  and  _565
REMARK  231  A    between atoms: _565  and  _566
REMARK  232  A    between atoms: _565  and  _568
REMARK  233  A    between atoms: _568  and  _569
REMARK  234  A    between atoms: _569  and  _570
REMARK  235  A    between atoms: _570  and  _571
REMARK  236  A    between atoms: _580  and  _582
REMARK  237  A    between atoms: _582  and  _583
REMARK  238  A    between atoms: _582  and  _585
REMARK  239  A    between atoms: _585  and  _586
REMARK                            x       y       z     vdW  Elec       q    Type
REMARK                         _______ _______ _______ _____ _____    ______ ____
ROOT
ATOM      1  C   GLY A   5      10.846  24.005  18.931  0.00  0.00    +0.243 C 
ATOM      2  N   ALA A   6      10.649  23.665  20.208  0.00  0.00    -0.297 N 
ATOM      3  H   ALA A   6      10.438  24.432  20.878  0.00  0.00    +0.150 HD
ATOM      4  O   GLY A   5      11.086  23.178  18.075  0.00  0.00    -0.273 OA
ENDROOT
BRANCH   2   5
ATOM      5  CA  ALA A   6      10.704  22.322  20.738  0.00  0.00    +0.149 C 
ATOM      6  CB  ALA A   6      11.698  22.183  21.886  0.00  0.00    +0.031 C 
BRANCH   5   7
ATOM      7  C   ALA A   6       9.318  21.864  21.197  0.00  0.00    +0.241 C 
ATOM      8  O   ALA A   6       8.673  22.525  22.005  0.00  0.00    -0.273 OA
ATOM      9  N   ASP A   7       8.896  20.714  20.676  0.00  0.00    -0.297 N 
ATOM     10  H   ASP A   7       9.465  20.225  19.955  0.00  0.00    +0.150 HD
BRANCH   9  11
ATOM     11  CA  ASP A   7       7.623  20.142  21.126  0.00  0.00    +0.160 C 
BRANCH  11  12
ATOM     12  C   ASP A   7       7.704  19.735  22.592  0.00  0.00    +0.241 C 
ATOM     13  O   ASP A   7       6.766  19.850  23.363  0.00  0.00    -0.273 OA
ATOM     14  N   ASP A   8       8.867  19.189  22.945  0.00  0.00    -0.297 N 
ATOM     15  H   ASP A   8       9.661  19.263  22.277  0.00  0.00    +0.150 HD
BRANCH  14  16
ATOM     16  CA  ASP A   8       9.099  18.500  24.197  0.00  0.00    +0.160 C 
BRANCH  16  17
ATOM     17  C   ASP A   8      10.280  19.078  24.959  0.00  0.00    +0.241 C 
ATOM     18  N   THR A   9      10.361  18.671  26.213  0.00  0.00    -0.295 N 
ATOM     19  H   THR A   9       9.615  18.042  26.573  0.00  0.00    +0.150 HD
ATOM     20  O   ASP A   8      11.062  19.855  24.420  0.00  0.00    -0.273 OA
BRANCH  18  21
ATOM     21  CA  THR A   9      11.435  19.053  27.121  0.00  0.00    +0.176 C 
BRANCH  21  22
ATOM     22  C   THR A   9      12.513  17.972  27.127  0.00  0.00    +0.243 C 
ATOM     23  O   THR A   9      12.205  16.800  27.370  0.00  0.00    -0.273 OA
ATOM     24  N   VAL A  10      13.772  18.315  26.858  0.00  0.00    -0.298 N 
ATOM     25  H   VAL A  10      13.979  19.326  26.729  0.00  0.00    +0.150 HD
BRANCH  24  26
ATOM     26  CA  VAL A  10      14.868  17.387  26.733  0.00  0.00    +0.137 C 
BRANCH  26  27
ATOM     27  CB  VAL A  10      15.351  17.206  25.283  0.00  0.00    +0.026 C 
ATOM     28  CG2 VAL A  10      16.208  15.929  25.187  0.00  0.00    +0.002 C 
ATOM     29  CG1 VAL A  10      14.172  17.161  24.333  0.00  0.00    +0.002 C 
ENDBRANCH  26  27
BRANCH  26  30
ATOM     30  C   VAL A  10      16.055  17.879  27.585  0.00  0.00    +0.227 C 
ATOM     31  O   VAL A  10      16.507  19.000  27.438  0.00  0.00    -0.286 OA
ENDBRANCH  26  30
ENDBRANCH  24  26
ENDBRANCH  21  22
BRANCH  21  32
ATOM     32  CB  THR A   9      10.830  19.313  28.502  0.00  0.00    +0.137 C 
ATOM     33  CG2 THR A   9      11.964  19.571  29.488  0.00  0.00    +0.034 C 
BRANCH  32  34
ATOM     34  OG1 THR A   9       9.985  20.463  28.393  0.00  0.00    -0.382 OA
ATOM     35  HG1 THR A   9       9.271  20.285  27.730  0.00  0.00    +0.210 HD
ENDBRANCH  32  34
ENDBRANCH  21  32
ENDBRANCH  18  21
ENDBRANCH  16  17
BRANCH  16  36
ATOM     36  CB  ASP A   8       9.415  17.023  23.900  0.00  0.00    +0.143 C 
BRANCH  36  37
ATOM     37  CG  ASP A   8       8.417  16.349  22.981  0.00  0.00    +0.367 C 
ATOM     38  OD2 ASP A   8       7.209  16.322  23.329  0.00  0.00    -0.246 OA
ATOM     39  OD1 ASP A   8       8.819  15.842  21.902  0.00  0.00    -0.246 OA
ENDBRANCH  36  37
ENDBRANCH  16  36
ENDBRANCH  14  16
ENDBRANCH  11  12
BRANCH  11  40
ATOM     40  CB  ASP A   7       7.307  18.903  20.296  0.00  0.00    +0.143 C 
BRANCH  40  41
ATOM     41  CG  ASP A   7       7.061  19.144  18.827  0.00  0.00    +0.367 C 
ATOM     42  OD2 ASP A   7       6.829  20.276  18.376  0.00  0.00    -0.246 OA
ATOM     43  OD1 ASP A   7       7.094  18.130  18.077  0.00  0.00    -0.246 OA
ENDBRANCH  40  41
ENDBRANCH  11  40
ENDBRANCH   9  11
ENDBRANCH   5   7
ENDBRANCH   2   5
BRANCH   1  44
ATOM     44  CA  GLY A   5      10.695  25.465  18.562  0.00  0.00    +0.176 C 
BRANCH  44  47
ATOM     45  C   THR A   4       9.288  26.639  20.199  0.00  0.00    +0.243 C 
ATOM     46  O   THR A   4       8.265  26.190  19.714  0.00  0.00    -0.273 OA
ATOM     47  N   GLY A   5      10.478  26.356  19.676  0.00  0.00    -0.295 N 
ATOM     48  H   GLY A   5      11.312  26.810  20.101  0.00  0.00    +0.150 HD
BRANCH  45  49
ATOM     49  CA  THR A   4       9.316  27.571  21.414  0.00  0.00    +0.176 C 
BRANCH  49  52
ATOM     50  C   ASP A   3      11.151  26.635  22.697  0.00  0.00    +0.241 C 
ATOM     51  O   ASP A   3      10.547  25.541  22.708  0.00  0.00    -0.273 OA
ATOM     52  N   THR A   4      10.620  27.677  22.065  0.00  0.00    -0.295 N 
ATOM     53  H   THR A   4      11.139  28.578  22.034  0.00  0.00    +0.150 HD
BRANCH  50  54
ATOM     54  CA  ASP A   3      12.511  26.827  23.349  0.00  0.00    +0.160 C 
BRANCH  54  56
ATOM     55  C   LEU A   2      13.027  28.197  25.269  0.00  0.00    +0.241 C 
ATOM     56  N   ASP A   3      12.445  27.110  24.783  0.00  0.00    -0.297 N 
ATOM     57  H   ASP A   3      11.942  26.459  25.420  0.00  0.00    +0.150 HD
ATOM     58  O   LEU A   2      13.508  29.083  24.547  0.00  0.00    -0.273 OA
BRANCH  55  59
ATOM     59  CA  LEU A   2      13.186  28.216  26.785  0.00  0.00    +0.149 C 
BRANCH  59  61
ATOM     60  C   LEU A   1      15.327  27.075  26.981  0.00  0.00    +0.238 C 
ATOM     61  N   LEU A   2      14.637  28.190  27.096  0.00  0.00    -0.297 N 
ATOM     62  H   LEU A   2      15.113  29.061  27.408  0.00  0.00    +0.150 HD
ATOM     63  O   LEU A   1      14.814  25.983  26.672  0.00  0.00    -0.274 OA
BRANCH  60  64
ATOM     64  CA  LEU A   1      16.829  27.121  27.234  0.00  0.00    +0.145 C 
BRANCH  64  65
ATOM     65  N   LEU A   1      17.193  26.172  28.274  0.00  0.00    -0.238 NA
ATOM     66  H   LEU A   1      17.262  25.166  28.019  0.00  0.00    +0.142 HD
ENDBRANCH  64  65
BRANCH  64  67
ATOM     67  CB  LEU A   1      17.584  26.752  25.974  0.00  0.00    +0.026 C 
BRANCH  67  68
ATOM     68  CG  LEU A   1      17.543  27.545  24.714  0.00  0.00    +0.002 C 
ATOM     69  CD2 LEU A   1      18.158  28.909  24.988  0.00  0.00    +0.000 C 
ATOM     70  CD1 LEU A   1      18.298  26.799  23.614  0.00  0.00    +0.000 C 
ENDBRANCH  67  68
ENDBRANCH  64  67
ENDBRANCH  60  64
ENDBRANCH  59  61
BRANCH  59  71
ATOM     71  CB  LEU A   2      12.489  29.428  27.353  0.00  0.00    +0.029 C 
BRANCH  71  72
ATOM     72  CG  LEU A   2      12.657  29.636  28.852  0.00  0.00    +0.002 C 
ATOM     73  CD2 LEU A   2      12.144  28.426  29.605  0.00  0.00    +0.000 C 
ATOM     74  CD1 LEU A   2      11.967  30.950  29.257  0.00  0.00    +0.000 C 
ENDBRANCH  71  72
ENDBRANCH  59  71
ENDBRANCH  55  59
ENDBRANCH  54  56
BRANCH  54  75
ATOM     75  CB  ASP A   3      13.335  25.548  23.156  0.00  0.00    +0.143 C 
BRANCH  75  76
ATOM     76  CG  ASP A   3      13.685  25.304  21.708  0.00  0.00    +0.367 C 
ATOM     77  OD2 ASP A   3      14.477  24.349  21.465  0.00  0.00    -0.246 OA
ATOM     78  OD1 ASP A   3      13.194  26.046  20.821  0.00  0.00    -0.246 OA
ENDBRANCH  75  76
ENDBRANCH  54  75
ENDBRANCH  50  54
ENDBRANCH  49  52
BRANCH  49  79
ATOM     79  CB  THR A   4       8.837  28.962  20.964  0.00  0.00    +0.137 C 
ATOM     80  CG2 THR A   4       8.653  29.854  22.187  0.00  0.00    +0.034 C 
BRANCH  79  81
ATOM     81  OG1 THR A   4       9.801  29.568  20.084  0.00  0.00    -0.382 OA
ATOM     82  HG1 THR A   4       9.923  28.996  19.285  0.00  0.00    +0.210 HD
ENDBRANCH  79  81
ENDBRANCH  49  79
ENDBRANCH  45  49
ENDBRANCH  44  47
ENDBRANCH   1  44
TORSDOF 35
REMARK  Name = ../refined-set-2016/2aod/2aod_pocket.pdb
REMARK  239 active torsions:
REMARK  status: ('A' for Active; 'I' for Inactive)
REMARK    1  A    between atoms: _1  and  _3
REMARK    2  A    between atoms: _3  and  _4
REMARK    3  A    between atoms: _3  and  _6
REMARK    4  A    between atoms: _6  and  _7
REMARK    5  A    between atoms: _7  and  _8
REMARK    6  A    between atoms: _8  and  _9
REMARK    7  A    between atoms: _18  and  _20
REMARK    8  A    between atoms: _20  and  _21
REMARK    9  A    between atoms: _20  and  _23
REMARK   10  A    between atoms: _23  and  _24
REMARK   11  A    between atoms: _27  and  _29
REMARK   12  A    between atoms: _29  and  _30
REMARK   13  A    between atoms: _29  and  _32
REMARK   14  A    between atoms: _32  and  _33
REMARK   15  A    between atoms: _33  and  _34
REMARK   16  A    between atoms: _37  and  _39
REMARK   17  A    between atoms: _39  and  _40
REMARK   18  A    between atoms: _39  and  _42
REMARK   19  A    between atoms: _42  and  _43
REMARK   20  A    between atoms: _46  and  _48
REMARK   21  A    between atoms: _48  and  _49
REMARK   22  A    between atoms: _48  and  _51
REMARK   23  A    between atoms: _51  and  _52
REMARK   24  A    between atoms: _55  and  _57
REMARK   25  A    between atoms: _57  and  _58
REMARK   26  A    between atoms: _57  and  _60
REMARK   27  A    between atoms: _60  and  _61
REMARK   28  A    between atoms: _64  and  _66
REMARK   29  A    between atoms: _66  and  _67
REMARK   30  A    between atoms: _69  and  _71
REMARK   31  A    between atoms: _71  and  _72
REMARK   32  A    between atoms: _75  and  _77
REMARK   33  A    between atoms: _77  and  _78
REMARK   34  A    between atoms: _77  and  _80
REMARK   35  A    between atoms: _80  and  _81
REMARK   36  A    between atoms: _84  and  _86
REMARK   37  A    between atoms: _86  and  _87
REMARK   38  A    between atoms: _86  and  _89
REMARK   39  A    between atoms: _89  and  _90
REMARK   40  A    between atoms: _93  and  _95
REMARK   41  A    between atoms: _95  and  _96
REMARK   42  A    between atoms: _95  and  _98
REMARK   43  A    between atoms: _98  and  _99
REMARK   44  A    between atoms: _102  and  _104
REMARK   45  A    between atoms: _104  and  _105
REMARK   46  A    between atoms: _104  and  _107
REMARK   47  A    between atoms: _110  and  _112
REMARK   48  A    between atoms: _112  and  _113
REMARK   49  A    between atoms: _112  and  _115
REMARK   50  A    between atoms: _115  and  _116
REMARK   51  A    between atoms: _116  and  _117
REMARK   52  A    between atoms: _117  and  _118
REMARK   53  A    between atoms: _118  and  _119
REMARK   54  A    between atoms: _123  and  _125
REMARK   55  A    between atoms: _125  and  _126
REMARK   56  A    between atoms: _125  and  _128
REMARK   57  A    between atoms: _128  and  _129
REMARK   58  A    between atoms: _129  and  _130
REMARK   59  A    between atoms: _132  and  _134
REMARK   60  A    between atoms: _134  and  _135
REMARK   61  A    between atoms: _134  and  _137
REMARK   62  A    between atoms: _137  and  _138
REMARK   63  A    between atoms: _141  and  _143
REMARK   64  A    between atoms: _143  and  _144
REMARK   65  A    between atoms: _146  and  _148
REMARK   66  A    between atoms: _148  and  _149
REMARK   67  A    between atoms: _151  and  _153
REMARK   68  A    between atoms: _153  and  _154
REMARK   69  A    between atoms: _153  and  _156
REMARK   70  A    between atoms: _156  and  _157
REMARK   71  A    between atoms: _160  and  _162
REMARK   72  A    between atoms: _162  and  _163
REMARK   73  A    between atoms: _165  and  _167
REMARK   74  A    between atoms: _167  and  _168
REMARK   75  A    between atoms: _170  and  _172
REMARK   76  A    between atoms: _172  and  _173
REMARK   77  A    between atoms: _172  and  _175
REMARK   78  A    between atoms: _175  and  _176
REMARK   79  A    between atoms: _182  and  _184
REMARK   80  A    between atoms: _184  and  _185
REMARK   81  A    between atoms: _184  and  _187
REMARK   82  A    between atoms: _187  and  _188
REMARK   83  A    between atoms: _191  and  _193
REMARK   84  A    between atoms: _193  and  _194
REMARK   85  A    between atoms: _193  and  _196
REMARK   86  A    between atoms: _199  and  _201
REMARK   87  A    between atoms: _201  and  _202
REMARK   88  A    between atoms: _201  and  _204
REMARK   89  A    between atoms: _204  and  _205
REMARK   90  A    between atoms: _209  and  _210
REMARK   91  A    between atoms: _215  and  _217
REMARK   92  A    between atoms: _217  and  _218
REMARK   93  A    between atoms: _217  and  _220
REMARK   94  A    between atoms: _220  and  _221
REMARK   95  A    between atoms: _225  and  _226
REMARK   96  A    between atoms: _231  and  _233
REMARK   97  A    between atoms: _233  and  _234
REMARK   98  A    between atoms: _233  and  _236
REMARK   99  A    between atoms: _239  and  _241
REMARK  100  A    between atoms: _241  and  _242
REMARK  101  A    between atoms: _241  and  _244
REMARK  102  A    between atoms: _244  and  _245
REMARK  103  A    between atoms: _250  and  _252
REMARK  104  A    between atoms: _252  and  _253
REMARK  105  A    between atoms: _252  and  _255
REMARK  106  A    between atoms: _255  and  _256
REMARK  107  A    between atoms: _259  and  _261
REMARK  108  A    between atoms: _261  and  _262
REMARK  109  A    between atoms: _261  and  _264
REMARK  110  A    between atoms: _264  and  _265
REMARK  111  A    between atoms: _268  and  _270
REMARK  112  A    between atoms: _270  and  _271
REMARK  113  A    between atoms: _273  and  _275
REMARK  114  A    between atoms: _275  and  _276
REMARK  115  A    between atoms: _275  and  _278
REMARK  116  A    between atoms: _278  and  _279
REMARK  117  A    between atoms: _279  and  _280
REMARK  118  A    between atoms: _280  and  _281
REMARK  119  A    between atoms: _290  and  _292
REMARK  120  A    between atoms: _292  and  _293
REMARK  121  A    between atoms: _292  and  _295
REMARK  122  A    between atoms: _295  and  _296
REMARK  123  A    between atoms: _301  and  _303
REMARK  124  A    between atoms: _303  and  _304
REMARK  125  A    between atoms: _303  and  _306
REMARK  126  A    between atoms: _306  and  _307
REMARK  127  A    between atoms: _307  and  _308
REMARK  128  A    between atoms: _308  and  _309
REMARK  129  A    between atoms: _318  and  _320
REMARK  130  A    between atoms: _320  and  _321
REMARK  131  A    between atoms: _320  and  _323
REMARK  132  A    between atoms: _323  and  _324
REMARK  133  A    between atoms: _327  and  _329
REMARK  134  A    between atoms: _329  and  _330
REMARK  135  A    between atoms: _329  and  _332
REMARK  136  A    between atoms: _332  and  _333
REMARK  137  A    between atoms: _336  and  _338
REMARK  138  A    between atoms: _338  and  _339
REMARK  139  A    between atoms: _338  and  _341
REMARK  140  A    between atoms: _341  and  _342
REMARK  141  A    between atoms: _345  and  _347
REMARK  142  A    between atoms: _347  and  _348
REMARK  143  A    between atoms: _347  and  _350
REMARK  144  A    between atoms: _350  and  _351
REMARK  145  A    between atoms: _354  and  _356
REMARK  146  A    between atoms: _356  and  _357
REMARK  147  A    between atoms: _359  and  _361
REMARK  148  A    between atoms: _361  and  _362
REMARK  149  A    between atoms: _365  and  _367
REMARK  150  A    between atoms: _367  and  _368
REMARK  151  A    between atoms: _367  and  _370
REMARK  152  A    between atoms: _370  and  _371
REMARK  153  A    between atoms: _374  and  _376
REMARK  154  A    between atoms: _376  and  _377
REMARK  155  A    between atoms: _376  and  _379
REMARK  156  A    between atoms: _379  and  _380
REMARK  157  A    between atoms: _383  and  _385
REMARK  158  A    between atoms: _385  and  _386
REMARK  159  A    between atoms: _385  and  _388
REMARK  160  A    between atoms: _388  and  _389
REMARK  161  A    between atoms: _392  and  _394
REMARK  162  A    between atoms: _394  and  _395
REMARK  163  A    between atoms: _394  and  _397
REMARK  164  A    between atoms: _400  and  _402
REMARK  165  A    between atoms: _402  and  _403
REMARK  166  A    between atoms: _402  and  _405
REMARK  167  A    between atoms: _405  and  _406
REMARK  168  A    between atoms: _406  and  _407
REMARK  169  A    between atoms: _407  and  _408
REMARK  170  A    between atoms: _408  and  _409
REMARK  171  A    between atoms: _413  and  _415
REMARK  172  A    between atoms: _415  and  _416
REMARK  173  A    between atoms: _415  and  _418
REMARK  174  A    between atoms: _418  and  _419
REMARK  175  A    between atoms: _419  and  _420
REMARK  176  A    between atoms: _422  and  _424
REMARK  177  A    between atoms: _424  and  _425
REMARK  178  A    between atoms: _424  and  _427
REMARK  179  A    between atoms: _427  and  _428
REMARK  180  A    between atoms: _431  and  _433
REMARK  181  A    between atoms: _433  and  _434
REMARK  182  A    between atoms: _436  and  _438
REMARK  183  A    between atoms: _438  and  _439
REMARK  184  A    between atoms: _441  and  _443
REMARK  185  A    between atoms: _443  and  _444
REMARK  186  A    between atoms: _443  and  _446
REMARK  187  A    between atoms: _446  and  _447
REMARK  188  A    between atoms: _450  and  _452
REMARK  189  A    between atoms: _452  and  _453
REMARK  190  A    between atoms: _455  and  _457
REMARK  191  A    between atoms: _457  and  _458
REMARK  192  A    between atoms: _460  and  _462
REMARK  193  A    between atoms: _462  and  _463
REMARK  194  A    between atoms: _462  and  _465
REMARK  195  A    between atoms: _465  and  _466
REMARK  196  A    between atoms: _472  and  _474
REMARK  197  A    between atoms: _474  and  _475
REMARK  198  A    between atoms: _474  and  _477
REMARK  199  A    between atoms: _477  and  _478
REMARK  200  A    between atoms: _481  and  _483
REMARK  201  A    between atoms: _483  and  _484
REMARK  202  A    between atoms: _483  and  _486
REMARK  203  A    between atoms: _489  and  _491
REMARK  204  A    between atoms: _491  and  _492
REMARK  205  A    between atoms: _491  and  _494
REMARK  206  A    between atoms: _494  and  _495
REMARK  207  A    between atoms: _499  and  _500
REMARK  208  A    between atoms: _505  and  _507
REMARK  209  A    between atoms: _507  and  _508
REMARK  210  A    between atoms: _507  and  _510
REMARK  211  A    between atoms: _510  and  _511
REMARK  212  A    between atoms: _515  and  _516
REMARK  213  A    between atoms: _521  and  _523
REMARK  214  A    between atoms: _523  and  _524
REMARK  215  A    between atoms: _523  and  _526
REMARK  216  A    between atoms: _529  and  _531
REMARK  217  A    between atoms: _531  and  _532
REMARK  218  A    between atoms: _531  and  _534
REMARK  219  A    between atoms: _534  and  _535
REMARK  220  A    between atoms: _540  and  _542
REMARK  221  A    between atoms: _542  and  _543
REMARK  222  A    between atoms: _542  and  _545
REMARK  223  A    between atoms: _545  and  _546
REMARK  224  A    between atoms: _549  and  _551
REMARK  225  A    between atoms: _551  and  _552
REMARK  226  A    between atoms: _551  and  _554
REMARK  227  A    between atoms: _554  and  _555
REMARK  228  A    between atoms: _558  and  _560
REMARK  229  A    between atoms: _560  and  _561
REMARK  230  A    between atoms: _563  and  _565
REMARK  231  A    between atoms: _565  and  _566
REMARK  232  A    between atoms: _565  and  _568
REMARK  233  A    between atoms: _568  and  _569
REMARK  234  A    between atoms: _569  and  _570
REMARK  235  A    between atoms: _570  and  _571
REMARK  236  A    between atoms: _580  and  _582
REMARK  237  A    between atoms: _582  and  _583
REMARK  238  A    between atoms: _582  and  _585
REMARK  239  A    between atoms: _585  and  _586
REMARK                            x       y       z     vdW  Elec       q    Type
REMARK                         _______ _______ _______ _____ _____    ______ ____
ROOT
ATOM      1  C   GLY A   5      16.967  18.465  14.059  0.00  0.00    +0.243 C 
ATOM      2  N   ILE A   6      17.670  19.593  14.123  0.00  0.00    -0.297 N 
ATOM      3  H   ILE A   6      17.726  20.118  15.019  0.00  0.00    +0.150 HD
ATOM      4  O   GLY A   5      16.859  17.799  13.049  0.00  0.00    -0.273 OA
ENDROOT
BRANCH   2   5
ATOM      5  CA  ILE A   6      18.357  20.093  12.951  0.00  0.00    +0.149 C 
BRANCH   5   6
ATOM      6  C   ILE A   6      19.286  19.076  12.313  0.00  0.00    +0.241 C 
ATOM      7  N   GLY A   7      19.970  18.223  13.060  0.00  0.00    -0.295 N 
ATOM      8  H   GLY A   7      19.796  18.197  14.085  0.00  0.00    +0.150 HD
ATOM      9  O   ILE A   6      19.389  19.047  11.084  0.00  0.00    -0.273 OA
BRANCH   7  10
ATOM     10  CA  GLY A   7      20.950  17.328  12.494  0.00  0.00    +0.176 C 
BRANCH  10  11
ATOM     11  C   GLY A   7      20.541  15.906  12.238  0.00  0.00    +0.243 C 
ATOM     12  N   GLY A   8      19.345  15.556  12.670  0.00  0.00    -0.295 N 
ATOM     13  H   GLY A   8      18.729  16.280  13.092  0.00  0.00    +0.150 HD
ATOM     14  O   GLY A   7      21.300  15.125  11.664  0.00  0.00    -0.273 OA
BRANCH  12  15
ATOM     15  CA  GLY A   8      18.866  14.199  12.575  0.00  0.00    +0.176 C 
BRANCH  15  16
ATOM     16  C   GLY A   8      18.128  13.779  13.838  0.00  0.00    +0.243 C 
ATOM     17  O   GLY A   8      17.566  14.609  14.530  0.00  0.00    -0.273 OA
ATOM     18  N   PHE A   9      18.096  12.486  14.105  0.00  0.00    -0.297 N 
ATOM     19  H   PHE A   9      18.668  11.862  13.501  0.00  0.00    +0.150 HD
BRANCH  18  20
ATOM     20  CA  PHE A   9      17.338  11.867  15.160  0.00  0.00    +0.153 C 
BRANCH  20  21
ATOM     21  C   PHE A   9      18.199  11.261  16.245  0.00  0.00    +0.241 C 
ATOM     22  N   ILE A  10      17.611  11.283  17.424  0.00  0.00    -0.298 N 
ATOM     23  H   ILE A  10      16.692  11.754  17.543  0.00  0.00    +0.150 HD
ATOM     24  O   PHE A   9      19.290  10.785  15.990  0.00  0.00    -0.273 OA
BRANCH  22  25
ATOM     25  CA  ILE A  10      18.252  10.649  18.547  0.00  0.00    +0.137 C 
BRANCH  25  26
ATOM     26  C   ILE A  10      17.209   9.904  19.364  0.00  0.00    +0.227 C 
ATOM     27  O   ILE A  10      16.030  10.236  19.349  0.00  0.00    -0.286 OA
ENDBRANCH  25  26
BRANCH  25  28
ATOM     28  CB  ILE A  10      19.000  11.660  19.445  0.00  0.00    +0.026 C 
ATOM     29  CG2 ILE A  10      20.116  12.374  18.686  0.00  0.00    +0.002 C 
BRANCH  28  30
ATOM     30  CG1 ILE A  10      18.096  12.664  20.169  0.00  0.00    +0.002 C 
ATOM     31  CD1 ILE A  10      18.777  13.442  21.281  0.00  0.00    +0.000 C 
ENDBRANCH  28  30
ENDBRANCH  25  28
ENDBRANCH  22  25
ENDBRANCH  20  21
BRANCH  20  32
ATOM     32  CB  PHE A   9      16.468  10.686  14.655  0.00  0.00    +0.055 C 
BRANCH  32  33
ATOM     33  CG  PHE A   9      15.575  11.239  13.559  0.00  0.00    -0.020 A 
ATOM     34  CD2 PHE A   9      14.320  11.709  13.895  0.00  0.00    -0.004 A 
ATOM     35  CE2 PHE A   9      13.508  12.260  12.912  0.00  0.00    -0.000 A 
ATOM     36  CZ  PHE A   9      14.000  12.316  11.612  0.00  0.00    -0.000 A 
ATOM     37  CE1 PHE A   9      15.252  11.837  11.268  0.00  0.00    -0.000 A 
ATOM     38  CD1 PHE A   9      16.063  11.283  12.258  0.00  0.00    -0.004 A 
ENDBRANCH  32  33
ENDBRANCH  20  32
ENDBRANCH  18  20
ENDBRANCH  15  16
ENDBRANCH  12  15
ENDBRANCH  10  11
ENDBRANCH   7  10
ENDBRANCH   5   6
BRANCH   5  39
ATOM     39  CB  ILE A   6      19.113  21.391  13.336  0.00  0.00    +0.027 C 
ATOM     40  CG2 ILE A   6      20.347  21.126  14.165  0.00  0.00    +0.002 C 
BRANCH  39  41
ATOM     41  CG1 ILE A   6      19.495  22.254  12.156  0.00  0.00    +0.002 C 
ATOM     42  CD1 ILE A   6      18.278  22.789  11.442  0.00  0.00    +0.000 C 
ENDBRANCH  39  41
ENDBRANCH   5  39
ENDBRANCH   2   5
BRANCH   1  43
ATOM     43  CA  GLY A   5      16.358  18.123  15.416  0.00  0.00    +0.176 C 
BRANCH  43  46
ATOM     44  C   GLY A   4      14.829  16.367  15.964  0.00  0.00    +0.243 C 
ATOM     45  O   GLY A   4      14.114  17.104  16.613  0.00  0.00    -0.273 OA
ATOM     46  N   GLY A   5      15.970  16.751  15.406  0.00  0.00    -0.295 N 
ATOM     47  H   GLY A   5      16.587  16.044  14.957  0.00  0.00    +0.150 HD
BRANCH  44  48
ATOM     48  CA  GLY A   4      14.459  14.908  15.711  0.00  0.00    +0.176 C 
BRANCH  48  51
ATOM     49  C   ILE A   3      14.110  13.259  17.455  0.00  0.00    +0.241 C 
ATOM     50  O   ILE A   3      15.149  12.684  17.239  0.00  0.00    -0.273 OA
ATOM     51  N   GLY A   4      13.688  14.326  16.764  0.00  0.00    -0.295 N 
ATOM     52  H   GLY A   4      12.767  14.746  17.002  0.00  0.00    +0.150 HD
BRANCH  49  53
ATOM     53  CA  ILE A   3      13.159  12.778  18.553  0.00  0.00    +0.149 C 
BRANCH  53  55
ATOM     54  C   MET A   2      12.436  10.494  18.840  0.00  0.00    +0.241 C 
ATOM     55  N   ILE A   3      13.402  11.376  18.836  0.00  0.00    -0.297 N 
ATOM     56  H   ILE A   3      14.372  11.063  19.042  0.00  0.00    +0.150 HD
ATOM     57  O   MET A   2      11.254  10.745  18.628  0.00  0.00    -0.273 OA
BRANCH  54  58
ATOM     58  CA  MET A   2      12.843   9.041  19.109  0.00  0.00    +0.149 C 
BRANCH  58  61
ATOM     59  C   LYS A   1      12.311   8.252  21.324  0.00  0.00    +0.238 C 
ATOM     60  O   LYS A   1      13.465   8.354  21.710  0.00  0.00    -0.274 OA
ATOM     61  N   MET A   2      11.942   8.483  20.079  0.00  0.00    -0.297 N 
ATOM     62  H   MET A   2      10.969   8.254  19.791  0.00  0.00    +0.150 HD
BRANCH  59  63
ATOM     63  CA  LYS A   1      11.151   7.891  22.234  0.00  0.00    +0.145 C 
BRANCH  63  64
ATOM     64  N   LYS A   1      11.595   6.870  23.150  0.00  0.00    -0.238 NA
ATOM     65  H   LYS A   1      12.595   6.855  23.436  0.00  0.00    +0.142 HD
ENDBRANCH  63  64
BRANCH  63  66
ATOM     66  CB  LYS A   1      10.646   9.125  22.985  0.00  0.00    +0.026 C 
BRANCH  66  67
ATOM     67  CG  LYS A   1       9.756  10.034  22.149  0.00  0.00    -0.000 C 
BRANCH  67  68
ATOM     68  CD  LYS A   1       9.071  11.100  22.904  0.00  0.00    -0.024 C 
BRANCH  68  69
ATOM     69  CE  LYS A   1       8.597  12.182  21.929  0.00  0.00    -0.086 C 
BRANCH  69  70
ATOM     70  NZ  LYS A   1       7.279  11.911  21.380  0.00  0.00    +0.380 N 
ATOM     71  HZ1 LYS A   1       6.587  11.856  22.154  0.00  0.00    -0.089 HD
ATOM     72  HZ2 LYS A   1       7.298  11.007  20.866  0.00  0.00    -0.089 HD
ATOM     73  HZ3 LYS A   1       7.012  12.676  20.728  0.00  0.00    -0.089 HD
ENDBRANCH  69  70
ENDBRANCH  68  69
ENDBRANCH  67  68
ENDBRANCH  66  67
ENDBRANCH  63  66
ENDBRANCH  59  63
ENDBRANCH  58  61
BRANCH  58  74
ATOM     74  CB  MET A   2      12.813   8.251  17.807  0.00  0.00    +0.041 C 
BRANCH  74  75
ATOM     75  CG  MET A   2      14.049   7.479  17.416  0.00  0.00    +0.060 C 
BRANCH  75  76
ATOM     76  SD  MET A   2      14.342   7.471  15.620  0.00  0.00    -0.139 S 
ATOM     77  CE  MET A   2      16.146   7.557  15.645  0.00  0.00    +0.069 C 
ENDBRANCH  75  76
ENDBRANCH  74  75
ENDBRANCH  58  74
ENDBRANCH  54  58
ENDBRANCH  53  55
BRANCH  53  78
ATOM     78  CB  ILE A   3      13.284  13.637  19.829  0.00  0.00    +0.027 C 
ATOM     79  CG2 ILE A   3      12.194  13.224  20.783  0.00  0.00    +0.002 C 
BRANCH  78  80
ATOM     80  CG1 ILE A   3      14.653  13.619  20.491  0.00  0.00    +0.002 C 
ATOM     81  CD1 ILE A   3      14.930  14.604  21.597  0.00  0.00    +0.000 C 
ENDBRANCH  78  80
ENDBRANCH  53  78
ENDBRANCH  49  53
ENDBRANCH  48  51
ENDBRANCH  44  48
ENDBRANCH  43  46
ENDBRANCH   1  43
TORSDOF 36
REMARK  Name = ../refined-set-2016/2aod/2aod_pocket.pdb
REMARK  239 active torsions:
REMARK  status: ('A' for Active; 'I' for Inactive)
REMARK    1  A    between atoms: _1  and  _3
REMARK    2  A    between atoms: _3  and  _4
REMARK    3  A    between atoms: _3  and  _6
REMARK    4  A    between atoms: _6  and  _7
REMARK    5  A    between atoms: _7  and  _8
REMARK    6  A    between atoms: _8  and  _9
REMARK    7  A    between atoms: _18  and  _20
REMARK    8  A    between atoms: _20  and  _21
REMARK    9  A    between atoms: _20  and  _23
REMARK   10  A    between atoms: _23  and  _24
REMARK   11  A    between atoms: _27  and  _29
REMARK   12  A    between atoms: _29  and  _30
REMARK   13  A    between atoms: _29  and  _32
REMARK   14  A    between atoms: _32  and  _33
REMARK   15  A    between atoms: _33  and  _34
REMARK   16  A    between atoms: _37  and  _39
REMARK   17  A    between atoms: _39  and  _40
REMARK   18  A    between atoms: _39  and  _42
REMARK   19  A    between atoms: _42  and  _43
REMARK   20  A    between atoms: _46  and  _48
REMARK   21  A    between atoms: _48  and  _49
REMARK   22  A    between atoms: _48  and  _51
REMARK   23  A    between atoms: _51  and  _52
REMARK   24  A    between atoms: _55  and  _57
REMARK   25  A    between atoms: _57  and  _58
REMARK   26  A    between atoms: _57  and  _60
REMARK   27  A    between atoms: _60  and  _61
REMARK   28  A    between atoms: _64  and  _66
REMARK   29  A    between atoms: _66  and  _67
REMARK   30  A    between atoms: _69  and  _71
REMARK   31  A    between atoms: _71  and  _72
REMARK   32  A    between atoms: _75  and  _77
REMARK   33  A    between atoms: _77  and  _78
REMARK   34  A    between atoms: _77  and  _80
REMARK   35  A    between atoms: _80  and  _81
REMARK   36  A    between atoms: _84  and  _86
REMARK   37  A    between atoms: _86  and  _87
REMARK   38  A    between atoms: _86  and  _89
REMARK   39  A    between atoms: _89  and  _90
REMARK   40  A    between atoms: _93  and  _95
REMARK   41  A    between atoms: _95  and  _96
REMARK   42  A    between atoms: _95  and  _98
REMARK   43  A    between atoms: _98  and  _99
REMARK   44  A    between atoms: _102  and  _104
REMARK   45  A    between atoms: _104  and  _105
REMARK   46  A    between atoms: _104  and  _107
REMARK   47  A    between atoms: _110  and  _112
REMARK   48  A    between atoms: _112  and  _113
REMARK   49  A    between atoms: _112  and  _115
REMARK   50  A    between atoms: _115  and  _116
REMARK   51  A    between atoms: _116  and  _117
REMARK   52  A    between atoms: _117  and  _118
REMARK   53  A    between atoms: _118  and  _119
REMARK   54  A    between atoms: _123  and  _125
REMARK   55  A    between atoms: _125  and  _126
REMARK   56  A    between atoms: _125  and  _128
REMARK   57  A    between atoms: _128  and  _129
REMARK   58  A    between atoms: _129  and  _130
REMARK   59  A    between atoms: _132  and  _134
REMARK   60  A    between atoms: _134  and  _135
REMARK   61  A    between atoms: _134  and  _137
REMARK   62  A    between atoms: _137  and  _138
REMARK   63  A    between atoms: _141  and  _143
REMARK   64  A    between atoms: _143  and  _144
REMARK   65  A    between atoms: _146  and  _148
REMARK   66  A    between atoms: _148  and  _149
REMARK   67  A    between atoms: _151  and  _153
REMARK   68  A    between atoms: _153  and  _154
REMARK   69  A    between atoms: _153  and  _156
REMARK   70  A    between atoms: _156  and  _157
REMARK   71  A    between atoms: _160  and  _162
REMARK   72  A    between atoms: _162  and  _163
REMARK   73  A    between atoms: _165  and  _167
REMARK   74  A    between atoms: _167  and  _168
REMARK   75  A    between atoms: _170  and  _172
REMARK   76  A    between atoms: _172  and  _173
REMARK   77  A    between atoms: _172  and  _175
REMARK   78  A    between atoms: _175  and  _176
REMARK   79  A    between atoms: _182  and  _184
REMARK   80  A    between atoms: _184  and  _185
REMARK   81  A    between atoms: _184  and  _187
REMARK   82  A    between atoms: _187  and  _188
REMARK   83  A    between atoms: _191  and  _193
REMARK   84  A    between atoms: _193  and  _194
REMARK   85  A    between atoms: _193  and  _196
REMARK   86  A    between atoms: _199  and  _201
REMARK   87  A    between atoms: _201  and  _202
REMARK   88  A    between atoms: _201  and  _204
REMARK   89  A    between atoms: _204  and  _205
REMARK   90  A    between atoms: _209  and  _210
REMARK   91  A    between atoms: _215  and  _217
REMARK   92  A    between atoms: _217  and  _218
REMARK   93  A    between atoms: _217  and  _220
REMARK   94  A    between atoms: _220  and  _221
REMARK   95  A    between atoms: _225  and  _226
REMARK   96  A    between atoms: _231  and  _233
REMARK   97  A    between atoms: _233  and  _234
REMARK   98  A    between atoms: _233  and  _236
REMARK   99  A    between atoms: _239  and  _241
REMARK  100  A    between atoms: _241  and  _242
REMARK  101  A    between atoms: _241  and  _244
REMARK  102  A    between atoms: _244  and  _245
REMARK  103  A    between atoms: _250  and  _252
REMARK  104  A    between atoms: _252  and  _253
REMARK  105  A    between atoms: _252  and  _255
REMARK  106  A    between atoms: _255  and  _256
REMARK  107  A    between atoms: _259  and  _261
REMARK  108  A    between atoms: _261  and  _262
REMARK  109  A    between atoms: _261  and  _264
REMARK  110  A    between atoms: _264  and  _265
REMARK  111  A    between atoms: _268  and  _270
REMARK  112  A    between atoms: _270  and  _271
REMARK  113  A    between atoms: _273  and  _275
REMARK  114  A    between atoms: _275  and  _276
REMARK  115  A    between atoms: _275  and  _278
REMARK  116  A    between atoms: _278  and  _279
REMARK  117  A    between atoms: _279  and  _280
REMARK  118  A    between atoms: _280  and  _281
REMARK  119  A    between atoms: _290  and  _292
REMARK  120  A    between atoms: _292  and  _293
REMARK  121  A    between atoms: _292  and  _295
REMARK  122  A    between atoms: _295  and  _296
REMARK  123  A    between atoms: _301  and  _303
REMARK  124  A    between atoms: _303  and  _304
REMARK  125  A    between atoms: _303  and  _306
REMARK  126  A    between atoms: _306  and  _307
REMARK  127  A    between atoms: _307  and  _308
REMARK  128  A    between atoms: _308  and  _309
REMARK  129  A    between atoms: _318  and  _320
REMARK  130  A    between atoms: _320  and  _321
REMARK  131  A    between atoms: _320  and  _323
REMARK  132  A    between atoms: _323  and  _324
REMARK  133  A    between atoms: _327  and  _329
REMARK  134  A    between atoms: _329  and  _330
REMARK  135  A    between atoms: _329  and  _332
REMARK  136  A    between atoms: _332  and  _333
REMARK  137  A    between atoms: _336  and  _338
REMARK  138  A    between atoms: _338  and  _339
REMARK  139  A    between atoms: _338  and  _341
REMARK  140  A    between atoms: _341  and  _342
REMARK  141  A    between atoms: _345  and  _347
REMARK  142  A    between atoms: _347  and  _348
REMARK  143  A    between atoms: _347  and  _350
REMARK  144  A    between atoms: _350  and  _351
REMARK  145  A    between atoms: _354  and  _356
REMARK  146  A    between atoms: _356  and  _357
REMARK  147  A    between atoms: _359  and  _361
REMARK  148  A    between atoms: _361  and  _362
REMARK  149  A    between atoms: _365  and  _367
REMARK  150  A    between atoms: _367  and  _368
REMARK  151  A    between atoms: _367  and  _370
REMARK  152  A    between atoms: _370  and  _371
REMARK  153  A    between atoms: _374  and  _376
REMARK  154  A    between atoms: _376  and  _377
REMARK  155  A    between atoms: _376  and  _379
REMARK  156  A    between atoms: _379  and  _380
REMARK  157  A    between atoms: _383  and  _385
REMARK  158  A    between atoms: _385  and  _386
REMARK  159  A    between atoms: _385  and  _388
REMARK  160  A    between atoms: _388  and  _389
REMARK  161  A    between atoms: _392  and  _394
REMARK  162  A    between atoms: _394  and  _395
REMARK  163  A    between atoms: _394  and  _397
REMARK  164  A    between atoms: _400  and  _402
REMARK  165  A    between atoms: _402  and  _403
REMARK  166  A    between atoms: _402  and  _405
REMARK  167  A    between atoms: _405  and  _406
REMARK  168  A    between atoms: _406  and  _407
REMARK  169  A    between atoms: _407  and  _408
REMARK  170  A    between atoms: _408  and  _409
REMARK  171  A    between atoms: _413  and  _415
REMARK  172  A    between atoms: _415  and  _416
REMARK  173  A    between atoms: _415  and  _418
REMARK  174  A    between atoms: _418  and  _419
REMARK  175  A    between atoms: _419  and  _420
REMARK  176  A    between atoms: _422  and  _424
REMARK  177  A    between atoms: _424  and  _425
REMARK  178  A    between atoms: _424  and  _427
REMARK  179  A    between atoms: _427  and  _428
REMARK  180  A    between atoms: _431  and  _433
REMARK  181  A    between atoms: _433  and  _434
REMARK  182  A    between atoms: _436  and  _438
REMARK  183  A    between atoms: _438  and  _439
REMARK  184  A    between atoms: _441  and  _443
REMARK  185  A    between atoms: _443  and  _444
REMARK  186  A    between atoms: _443  and  _446
REMARK  187  A    between atoms: _446  and  _447
REMARK  188  A    between atoms: _450  and  _452
REMARK  189  A    between atoms: _452  and  _453
REMARK  190  A    between atoms: _455  and  _457
REMARK  191  A    between atoms: _457  and  _458
REMARK  192  A    between atoms: _460  and  _462
REMARK  193  A    between atoms: _462  and  _463
REMARK  194  A    between atoms: _462  and  _465
REMARK  195  A    between atoms: _465  and  _466
REMARK  196  A    between atoms: _472  and  _474
REMARK  197  A    between atoms: _474  and  _475
REMARK  198  A    between atoms: _474  and  _477
REMARK  199  A    between atoms: _477  and  _478
REMARK  200  A    between atoms: _481  and  _483
REMARK  201  A    between atoms: _483  and  _484
REMARK  202  A    between atoms: _483  and  _486
REMARK  203  A    between atoms: _489  and  _491
REMARK  204  A    between atoms: _491  and  _492
REMARK  205  A    between atoms: _491  and  _494
REMARK  206  A    between atoms: _494  and  _495
REMARK  207  A    between atoms: _499  and  _500
REMARK  208  A    between atoms: _505  and  _507
REMARK  209  A    between atoms: _507  and  _508
REMARK  210  A    between atoms: _507  and  _510
REMARK  211  A    between atoms: _510  and  _511
REMARK  212  A    between atoms: _515  and  _516
REMARK  213  A    between atoms: _521  and  _523
REMARK  214  A    between atoms: _523  and  _524
REMARK  215  A    between atoms: _523  and  _526
REMARK  216  A    between atoms: _529  and  _531
REMARK  217  A    between atoms: _531  and  _532
REMARK  218  A    between atoms: _531  and  _534
REMARK  219  A    between atoms: _534  and  _535
REMARK  220  A    between atoms: _540  and  _542
REMARK  221  A    between atoms: _542  and  _543
REMARK  222  A    between atoms: _542  and  _545
REMARK  223  A    between atoms: _545  and  _546
REMARK  224  A    between atoms: _549  and  _551
REMARK  225  A    between atoms: _551  and  _552
REMARK  226  A    between atoms: _551  and  _554
REMARK  227  A    between atoms: _554  and  _555
REMARK  228  A    between atoms: _558  and  _560
REMARK  229  A    between atoms: _560  and  _561
REMARK  230  A    between atoms: _563  and  _565
REMARK  231  A    between atoms: _565  and  _566
REMARK  232  A    between atoms: _565  and  _568
REMARK  233  A    between atoms: _568  and  _569
REMARK  234  A    between atoms: _569  and  _570
REMARK  235  A    between atoms: _570  and  _571
REMARK  236  A    between atoms: _580  and  _582
REMARK  237  A    between atoms: _582  and  _583
REMARK  238  A    between atoms: _582  and  _585
REMARK  239  A    between atoms: _585  and  _586
REMARK                            x       y       z     vdW  Elec       q    Type
REMARK                         _______ _______ _______ _____ _____    ______ ____
ROOT
ATOM      1  CA  VAL A   1      15.851   9.474  24.465  0.00  0.00    +0.133 C 
ENDROOT
BRANCH   1   2
ATOM      2  CB  VAL A   1      15.344  10.921  24.508  0.00  0.00    +0.023 C 
ATOM      3  CG2 VAL A   1      13.945  11.067  23.930  0.00  0.00    +0.002 C 
ATOM      4  CG1 VAL A   1      16.317  11.829  23.786  0.00  0.00    +0.002 C 
ENDBRANCH   1   2
BRANCH   1   5
ATOM      5  N   VAL A   1      15.896   8.905  23.119  0.00  0.00    -0.239 NA
ATOM      6  H   VAL A   1      15.013   8.580  22.676  0.00  0.00    +0.142 HD
ENDBRANCH   1   5
BRANCH   1   7
ATOM      7  C   VAL A   1      14.992   8.578  25.365  0.00  0.00    +0.224 C 
ATOM      8  O   VAL A   1      14.239   7.717  24.874  0.00  0.00    -0.287 OA
ENDBRANCH   1   7
TORSDOF 3
REMARK  Name = ../refined-set-2016/2aod/2aod_pocket.pdb
REMARK  239 active torsions:
REMARK  status: ('A' for Active; 'I' for Inactive)
REMARK    1  A    between atoms: _1  and  _3
REMARK    2  A    between atoms: _3  and  _4
REMARK    3  A    between atoms: _3  and  _6
REMARK    4  A    between atoms: _6  and  _7
REMARK    5  A    between atoms: _7  and  _8
REMARK    6  A    between atoms: _8  and  _9
REMARK    7  A    between atoms: _18  and  _20
REMARK    8  A    between atoms: _20  and  _21
REMARK    9  A    between atoms: _20  and  _23
REMARK   10  A    between atoms: _23  and  _24
REMARK   11  A    between atoms: _27  and  _29
REMARK   12  A    between atoms: _29  and  _30
REMARK   13  A    between atoms: _29  and  _32
REMARK   14  A    between atoms: _32  and  _33
REMARK   15  A    between atoms: _33  and  _34
REMARK   16  A    between atoms: _37  and  _39
REMARK   17  A    between atoms: _39  and  _40
REMARK   18  A    between atoms: _39  and  _42
REMARK   19  A    between atoms: _42  and  _43
REMARK   20  A    between atoms: _46  and  _48
REMARK   21  A    between atoms: _48  and  _49
REMARK   22  A    between atoms: _48  and  _51
REMARK   23  A    between atoms: _51  and  _52
REMARK   24  A    between atoms: _55  and  _57
REMARK   25  A    between atoms: _57  and  _58
REMARK   26  A    between atoms: _57  and  _60
REMARK   27  A    between atoms: _60  and  _61
REMARK   28  A    between atoms: _64  and  _66
REMARK   29  A    between atoms: _66  and  _67
REMARK   30  A    between atoms: _69  and  _71
REMARK   31  A    between atoms: _71  and  _72
REMARK   32  A    between atoms: _75  and  _77
REMARK   33  A    between atoms: _77  and  _78
REMARK   34  A    between atoms: _77  and  _80
REMARK   35  A    between atoms: _80  and  _81
REMARK   36  A    between atoms: _84  and  _86
REMARK   37  A    between atoms: _86  and  _87
REMARK   38  A    between atoms: _86  and  _89
REMARK   39  A    between atoms: _89  and  _90
REMARK   40  A    between atoms: _93  and  _95
REMARK   41  A    between atoms: _95  and  _96
REMARK   42  A    between atoms: _95  and  _98
REMARK   43  A    between atoms: _98  and  _99
REMARK   44  A    between atoms: _102  and  _104
REMARK   45  A    between atoms: _104  and  _105
REMARK   46  A    between atoms: _104  and  _107
REMARK   47  A    between atoms: _110  and  _112
REMARK   48  A    between atoms: _112  and  _113
REMARK   49  A    between atoms: _112  and  _115
REMARK   50  A    between atoms: _115  and  _116
REMARK   51  A    between atoms: _116  and  _117
REMARK   52  A    between atoms: _117  and  _118
REMARK   53  A    between atoms: _118  and  _119
REMARK   54  A    between atoms: _123  and  _125
REMARK   55  A    between atoms: _125  and  _126
REMARK   56  A    between atoms: _125  and  _128
REMARK   57  A    between atoms: _128  and  _129
REMARK   58  A    between atoms: _129  and  _130
REMARK   59  A    between atoms: _132  and  _134
REMARK   60  A    between atoms: _134  and  _135
REMARK   61  A    between atoms: _134  and  _137
REMARK   62  A    between atoms: _137  and  _138
REMARK   63  A    between atoms: _141  and  _143
REMARK   64  A    between atoms: _143  and  _144
REMARK   65  A    between atoms: _146  and  _148
REMARK   66  A    between atoms: _148  and  _149
REMARK   67  A    between atoms: _151  and  _153
REMARK   68  A    between atoms: _153  and  _154
REMARK   69  A    between atoms: _153  and  _156
REMARK   70  A    between atoms: _156  and  _157
REMARK   71  A    between atoms: _160  and  _162
REMARK   72  A    between atoms: _162  and  _163
REMARK   73  A    between atoms: _165  and  _167
REMARK   74  A    between atoms: _167  and  _168
REMARK   75  A    between atoms: _170  and  _172
REMARK   76  A    between atoms: _172  and  _173
REMARK   77  A    between atoms: _172  and  _175
REMARK   78  A    between atoms: _175  and  _176
REMARK   79  A    between atoms: _182  and  _184
REMARK   80  A    between atoms: _184  and  _185
REMARK   81  A    between atoms: _184  and  _187
REMARK   82  A    between atoms: _187  and  _188
REMARK   83  A    between atoms: _191  and  _193
REMARK   84  A    between atoms: _193  and  _194
REMARK   85  A    between atoms: _193  and  _196
REMARK   86  A    between atoms: _199  and  _201
REMARK   87  A    between atoms: _201  and  _202
REMARK   88  A    between atoms: _201  and  _204
REMARK   89  A    between atoms: _204  and  _205
REMARK   90  A    between atoms: _209  and  _210
REMARK   91  A    between atoms: _215  and  _217
REMARK   92  A    between atoms: _217  and  _218
REMARK   93  A    between atoms: _217  and  _220
REMARK   94  A    between atoms: _220  and  _221
REMARK   95  A    between atoms: _225  and  _226
REMARK   96  A    between atoms: _231  and  _233
REMARK   97  A    between atoms: _233  and  _234
REMARK   98  A    between atoms: _233  and  _236
REMARK   99  A    between atoms: _239  and  _241
REMARK  100  A    between atoms: _241  and  _242
REMARK  101  A    between atoms: _241  and  _244
REMARK  102  A    between atoms: _244  and  _245
REMARK  103  A    between atoms: _250  and  _252
REMARK  104  A    between atoms: _252  and  _253
REMARK  105  A    between atoms: _252  and  _255
REMARK  106  A    between atoms: _255  and  _256
REMARK  107  A    between atoms: _259  and  _261
REMARK  108  A    between atoms: _261  and  _262
REMARK  109  A    between atoms: _261  and  _264
REMARK  110  A    between atoms: _264  and  _265
REMARK  111  A    between atoms: _268  and  _270
REMARK  112  A    between atoms: _270  and  _271
REMARK  113  A    between atoms: _273  and  _275
REMARK  114  A    between atoms: _275  and  _276
REMARK  115  A    between atoms: _275  and  _278
REMARK  116  A    between atoms: _278  and  _279
REMARK  117  A    between atoms: _279  and  _280
REMARK  118  A    between atoms: _280  and  _281
REMARK  119  A    between atoms: _290  and  _292
REMARK  120  A    between atoms: _292  and  _293
REMARK  121  A    between atoms: _292  and  _295
REMARK  122  A    between atoms: _295  and  _296
REMARK  123  A    between atoms: _301  and  _303
REMARK  124  A    between atoms: _303  and  _304
REMARK  125  A    between atoms: _303  and  _306
REMARK  126  A    between atoms: _306  and  _307
REMARK  127  A    between atoms: _307  and  _308
REMARK  128  A    between atoms: _308  and  _309
REMARK  129  A    between atoms: _318  and  _320
REMARK  130  A    between atoms: _320  and  _321
REMARK  131  A    between atoms: _320  and  _323
REMARK  132  A    between atoms: _323  and  _324
REMARK  133  A    between atoms: _327  and  _329
REMARK  134  A    between atoms: _329  and  _330
REMARK  135  A    between atoms: _329  and  _332
REMARK  136  A    between atoms: _332  and  _333
REMARK  137  A    between atoms: _336  and  _338
REMARK  138  A    between atoms: _338  and  _339
REMARK  139  A    between atoms: _338  and  _341
REMARK  140  A    between atoms: _341  and  _342
REMARK  141  A    between atoms: _345  and  _347
REMARK  142  A    between atoms: _347  and  _348
REMARK  143  A    between atoms: _347  and  _350
REMARK  144  A    between atoms: _350  and  _351
REMARK  145  A    between atoms: _354  and  _356
REMARK  146  A    between atoms: _356  and  _357
REMARK  147  A    between atoms: _359  and  _361
REMARK  148  A    between atoms: _361  and  _362
REMARK  149  A    between atoms: _365  and  _367
REMARK  150  A    between atoms: _367  and  _368
REMARK  151  A    between atoms: _367  and  _370
REMARK  152  A    between atoms: _370  and  _371
REMARK  153  A    between atoms: _374  and  _376
REMARK  154  A    between atoms: _376  and  _377
REMARK  155  A    between atoms: _376  and  _379
REMARK  156  A    between atoms: _379  and  _380
REMARK  157  A    between atoms: _383  and  _385
REMARK  158  A    between atoms: _385  and  _386
REMARK  159  A    between atoms: _385  and  _388
REMARK  160  A    between atoms: _388  and  _389
REMARK  161  A    between atoms: _392  and  _394
REMARK  162  A    between atoms: _394  and  _395
REMARK  163  A    between atoms: _394  and  _397
REMARK  164  A    between atoms: _400  and  _402
REMARK  165  A    between atoms: _402  and  _403
REMARK  166  A    between atoms: _402  and  _405
REMARK  167  A    between atoms: _405  and  _406
REMARK  168  A    between atoms: _406  and  _407
REMARK  169  A    between atoms: _407  and  _408
REMARK  170  A    between atoms: _408  and  _409
REMARK  171  A    between atoms: _413  and  _415
REMARK  172  A    between atoms: _415  and  _416
REMARK  173  A    between atoms: _415  and  _418
REMARK  174  A    between atoms: _418  and  _419
REMARK  175  A    between atoms: _419  and  _420
REMARK  176  A    between atoms: _422  and  _424
REMARK  177  A    between atoms: _424  and  _425
REMARK  178  A    between atoms: _424  and  _427
REMARK  179  A    between atoms: _427  and  _428
REMARK  180  A    between atoms: _431  and  _433
REMARK  181  A    between atoms: _433  and  _434
REMARK  182  A    between atoms: _436  and  _438
REMARK  183  A    between atoms: _438  and  _439
REMARK  184  A    between atoms: _441  and  _443
REMARK  185  A    between atoms: _443  and  _444
REMARK  186  A    between atoms: _443  and  _446
REMARK  187  A    between atoms: _446  and  _447
REMARK  188  A    between atoms: _450  and  _452
REMARK  189  A    between atoms: _452  and  _453
REMARK  190  A    between atoms: _455  and  _457
REMARK  191  A    between atoms: _457  and  _458
REMARK  192  A    between atoms: _460  and  _462
REMARK  193  A    between atoms: _462  and  _463
REMARK  194  A    between atoms: _462  and  _465
REMARK  195  A    between atoms: _465  and  _466
REMARK  196  A    between atoms: _472  and  _474
REMARK  197  A    between atoms: _474  and  _475
REMARK  198  A    between atoms: _474  and  _477
REMARK  199  A    between atoms: _477  and  _478
REMARK  200  A    between atoms: _481  and  _483
REMARK  201  A    between atoms: _483  and  _484
REMARK  202  A    between atoms: _483  and  _486
REMARK  203  A    between atoms: _489  and  _491
REMARK  204  A    between atoms: _491  and  _492
REMARK  205  A    between atoms: _491  and  _494
REMARK  206  A    between atoms: _494  and  _495
REMARK  207  A    between atoms: _499  and  _500
REMARK  208  A    between atoms: _505  and  _507
REMARK  209  A    between atoms: _507  and  _508
REMARK  210  A    between atoms: _507  and  _510
REMARK  211  A    between atoms: _510  and  _511
REMARK  212  A    between atoms: _515  and  _516
REMARK  213  A    between atoms: _521  and  _523
REMARK  214  A    between atoms: _523  and  _524
REMARK  215  A    between atoms: _523  and  _526
REMARK  216  A    between atoms: _529  and  _531
REMARK  217  A    between atoms: _531  and  _532
REMARK  218  A    between atoms: _531  and  _534
REMARK  219  A    between atoms: _534  and  _535
REMARK  220  A    between atoms: _540  and  _542
REMARK  221  A    between atoms: _542  and  _543
REMARK  222  A    between atoms: _542  and  _545
REMARK  223  A    between atoms: _545  and  _546
REMARK  224  A    between atoms: _549  and  _551
REMARK  225  A    between atoms: _551  and  _552
REMARK  226  A    between atoms: _551  and  _554
REMARK  227  A    between atoms: _554  and  _555
REMARK  228  A    between atoms: _558  and  _560
REMARK  229  A    between atoms: _560  and  _561
REMARK  230  A    between atoms: _563  and  _565
REMARK  231  A    between atoms: _565  and  _566
REMARK  232  A    between atoms: _565  and  _568
REMARK  233  A    between atoms: _568  and  _569
REMARK  234  A    between atoms: _569  and  _570
REMARK  235  A    between atoms: _570  and  _571
REMARK  236  A    between atoms: _580  and  _582
REMARK  237  A    between atoms: _582  and  _583
REMARK  238  A    between atoms: _582  and  _585
REMARK  239  A    between atoms: _585  and  _586
REMARK                            x       y       z     vdW  Elec       q    Type
REMARK                         _______ _______ _______ _____ _____    ______ ____
ROOT
ATOM      1  CA  LEU A   1      13.018  13.349  27.946  0.00  0.00    +0.133 C 
ENDROOT
BRANCH   1   2
ATOM      2  N   LEU A   1      12.185  14.272  28.744  0.00  0.00    -0.239 NA
ATOM      3  H   LEU A   1      12.099  15.260  28.430  0.00  0.00    +0.142 HD
ENDBRANCH   1   2
BRANCH   1   4
ATOM      4  C   LEU A   1      14.473  13.506  28.348  0.00  0.00    +0.224 C 
ATOM      5  O   LEU A   1      14.939  14.643  28.510  0.00  0.00    -0.287 OA
ENDBRANCH   1   4
BRANCH   1   6
ATOM      6  CB  LEU A   1      12.830  13.628  26.447  0.00  0.00    +0.025 C 
BRANCH   6   7
ATOM      7  CG  LEU A   1      11.373  13.734  25.967  0.00  0.00    +0.002 C 
ATOM      8  CD2 LEU A   1      10.567  12.491  26.356  0.00  0.00    +0.000 C 
ATOM      9  CD1 LEU A   1      11.331  13.997  24.473  0.00  0.00    +0.000 C 
ENDBRANCH   6   7
ENDBRANCH   1   6
TORSDOF 4
REMARK  Name = ../refined-set-2016/2aod/2aod_pocket.pdb
REMARK  239 active torsions:
REMARK  status: ('A' for Active; 'I' for Inactive)
REMARK    1  A    between atoms: _1  and  _3
REMARK    2  A    between atoms: _3  and  _4
REMARK    3  A    between atoms: _3  and  _6
REMARK    4  A    between atoms: _6  and  _7
REMARK    5  A    between atoms: _7  and  _8
REMARK    6  A    between atoms: _8  and  _9
REMARK    7  A    between atoms: _18  and  _20
REMARK    8  A    between atoms: _20  and  _21
REMARK    9  A    between atoms: _20  and  _23
REMARK   10  A    between atoms: _23  and  _24
REMARK   11  A    between atoms: _27  and  _29
REMARK   12  A    between atoms: _29  and  _30
REMARK   13  A    between atoms: _29  and  _32
REMARK   14  A    between atoms: _32  and  _33
REMARK   15  A    between atoms: _33  and  _34
REMARK   16  A    between atoms: _37  and  _39
REMARK   17  A    between atoms: _39  and  _40
REMARK   18  A    between atoms: _39  and  _42
REMARK   19  A    between atoms: _42  and  _43
REMARK   20  A    between atoms: _46  and  _48
REMARK   21  A    between atoms: _48  and  _49
REMARK   22  A    between atoms: _48  and  _51
REMARK   23  A    between atoms: _51  and  _52
REMARK   24  A    between atoms: _55  and  _57
REMARK   25  A    between atoms: _57  and  _58
REMARK   26  A    between atoms: _57  and  _60
REMARK   27  A    between atoms: _60  and  _61
REMARK   28  A    between atoms: _64  and  _66
REMARK   29  A    between atoms: _66  and  _67
REMARK   30  A    between atoms: _69  and  _71
REMARK   31  A    between atoms: _71  and  _72
REMARK   32  A    between atoms: _75  and  _77
REMARK   33  A    between atoms: _77  and  _78
REMARK   34  A    between atoms: _77  and  _80
REMARK   35  A    between atoms: _80  and  _81
REMARK   36  A    between atoms: _84  and  _86
REMARK   37  A    between atoms: _86  and  _87
REMARK   38  A    between atoms: _86  and  _89
REMARK   39  A    between atoms: _89  and  _90
REMARK   40  A    between atoms: _93  and  _95
REMARK   41  A    between atoms: _95  and  _96
REMARK   42  A    between atoms: _95  and  _98
REMARK   43  A    between atoms: _98  and  _99
REMARK   44  A    between atoms: _102  and  _104
REMARK   45  A    between atoms: _104  and  _105
REMARK   46  A    between atoms: _104  and  _107
REMARK   47  A    between atoms: _110  and  _112
REMARK   48  A    between atoms: _112  and  _113
REMARK   49  A    between atoms: _112  and  _115
REMARK   50  A    between atoms: _115  and  _116
REMARK   51  A    between atoms: _116  and  _117
REMARK   52  A    between atoms: _117  and  _118
REMARK   53  A    between atoms: _118  and  _119
REMARK   54  A    between atoms: _123  and  _125
REMARK   55  A    between atoms: _125  and  _126
REMARK   56  A    between atoms: _125  and  _128
REMARK   57  A    between atoms: _128  and  _129
REMARK   58  A    between atoms: _129  and  _130
REMARK   59  A    between atoms: _132  and  _134
REMARK   60  A    between atoms: _134  and  _135
REMARK   61  A    between atoms: _134  and  _137
REMARK   62  A    between atoms: _137  and  _138
REMARK   63  A    between atoms: _141  and  _143
REMARK   64  A    between atoms: _143  and  _144
REMARK   65  A    between atoms: _146  and  _148
REMARK   66  A    between atoms: _148  and  _149
REMARK   67  A    between atoms: _151  and  _153
REMARK   68  A    between atoms: _153  and  _154
REMARK   69  A    between atoms: _153  and  _156
REMARK   70  A    between atoms: _156  and  _157
REMARK   71  A    between atoms: _160  and  _162
REMARK   72  A    between atoms: _162  and  _163
REMARK   73  A    between atoms: _165  and  _167
REMARK   74  A    between atoms: _167  and  _168
REMARK   75  A    between atoms: _170  and  _172
REMARK   76  A    between atoms: _172  and  _173
REMARK   77  A    between atoms: _172  and  _175
REMARK   78  A    between atoms: _175  and  _176
REMARK   79  A    between atoms: _182  and  _184
REMARK   80  A    between atoms: _184  and  _185
REMARK   81  A    between atoms: _184  and  _187
REMARK   82  A    between atoms: _187  and  _188
REMARK   83  A    between atoms: _191  and  _193
REMARK   84  A    between atoms: _193  and  _194
REMARK   85  A    between atoms: _193  and  _196
REMARK   86  A    between atoms: _199  and  _201
REMARK   87  A    between atoms: _201  and  _202
REMARK   88  A    between atoms: _201  and  _204
REMARK   89  A    between atoms: _204  and  _205
REMARK   90  A    between atoms: _209  and  _210
REMARK   91  A    between atoms: _215  and  _217
REMARK   92  A    between atoms: _217  and  _218
REMARK   93  A    between atoms: _217  and  _220
REMARK   94  A    between atoms: _220  and  _221
REMARK   95  A    between atoms: _225  and  _226
REMARK   96  A    between atoms: _231  and  _233
REMARK   97  A    between atoms: _233  and  _234
REMARK   98  A    between atoms: _233  and  _236
REMARK   99  A    between atoms: _239  and  _241
REMARK  100  A    between atoms: _241  and  _242
REMARK  101  A    between atoms: _241  and  _244
REMARK  102  A    between atoms: _244  and  _245
REMARK  103  A    between atoms: _250  and  _252
REMARK  104  A    between atoms: _252  and  _253
REMARK  105  A    between atoms: _252  and  _255
REMARK  106  A    between atoms: _255  and  _256
REMARK  107  A    between atoms: _259  and  _261
REMARK  108  A    between atoms: _261  and  _262
REMARK  109  A    between atoms: _261  and  _264
REMARK  110  A    between atoms: _264  and  _265
REMARK  111  A    between atoms: _268  and  _270
REMARK  112  A    between atoms: _270  and  _271
REMARK  113  A    between atoms: _273  and  _275
REMARK  114  A    between atoms: _275  and  _276
REMARK  115  A    between atoms: _275  and  _278
REMARK  116  A    between atoms: _278  and  _279
REMARK  117  A    between atoms: _279  and  _280
REMARK  118  A    between atoms: _280  and  _281
REMARK  119  A    between atoms: _290  and  _292
REMARK  120  A    between atoms: _292  and  _293
REMARK  121  A    between atoms: _292  and  _295
REMARK  122  A    between atoms: _295  and  _296
REMARK  123  A    between atoms: _301  and  _303
REMARK  124  A    between atoms: _303  and  _304
REMARK  125  A    between atoms: _303  and  _306
REMARK  126  A    between atoms: _306  and  _307
REMARK  127  A    between atoms: _307  and  _308
REMARK  128  A    between atoms: _308  and  _309
REMARK  129  A    between atoms: _318  and  _320
REMARK  130  A    between atoms: _320  and  _321
REMARK  131  A    between atoms: _320  and  _323
REMARK  132  A    between atoms: _323  and  _324
REMARK  133  A    between atoms: _327  and  _329
REMARK  134  A    between atoms: _329  and  _330
REMARK  135  A    between atoms: _329  and  _332
REMARK  136  A    between atoms: _332  and  _333
REMARK  137  A    between atoms: _336  and  _338
REMARK  138  A    between atoms: _338  and  _339
REMARK  139  A    between atoms: _338  and  _341
REMARK  140  A    between atoms: _341  and  _342
REMARK  141  A    between atoms: _345  and  _347
REMARK  142  A    between atoms: _347  and  _348
REMARK  143  A    between atoms: _347  and  _350
REMARK  144  A    between atoms: _350  and  _351
REMARK  145  A    between atoms: _354  and  _356
REMARK  146  A    between atoms: _356  and  _357
REMARK  147  A    between atoms: _359  and  _361
REMARK  148  A    between atoms: _361  and  _362
REMARK  149  A    between atoms: _365  and  _367
REMARK  150  A    between atoms: _367  and  _368
REMARK  151  A    between atoms: _367  and  _370
REMARK  152  A    between atoms: _370  and  _371
REMARK  153  A    between atoms: _374  and  _376
REMARK  154  A    between atoms: _376  and  _377
REMARK  155  A    between atoms: _376  and  _379
REMARK  156  A    between atoms: _379  and  _380
REMARK  157  A    between atoms: _383  and  _385
REMARK  158  A    between atoms: _385  and  _386
REMARK  159  A    between atoms: _385  and  _388
REMARK  160  A    between atoms: _388  and  _389
REMARK  161  A    between atoms: _392  and  _394
REMARK  162  A    between atoms: _394  and  _395
REMARK  163  A    between atoms: _394  and  _397
REMARK  164  A    between atoms: _400  and  _402
REMARK  165  A    between atoms: _402  and  _403
REMARK  166  A    between atoms: _402  and  _405
REMARK  167  A    between atoms: _405  and  _406
REMARK  168  A    between atoms: _406  and  _407
REMARK  169  A    between atoms: _407  and  _408
REMARK  170  A    between atoms: _408  and  _409
REMARK  171  A    between atoms: _413  and  _415
REMARK  172  A    between atoms: _415  and  _416
REMARK  173  A    between atoms: _415  and  _418
REMARK  174  A    between atoms: _418  and  _419
REMARK  175  A    between atoms: _419  and  _420
REMARK  176  A    between atoms: _422  and  _424
REMARK  177  A    between atoms: _424  and  _425
REMARK  178  A    between atoms: _424  and  _427
REMARK  179  A    between atoms: _427  and  _428
REMARK  180  A    between atoms: _431  and  _433
REMARK  181  A    between atoms: _433  and  _434
REMARK  182  A    between atoms: _436  and  _438
REMARK  183  A    between atoms: _438  and  _439
REMARK  184  A    between atoms: _441  and  _443
REMARK  185  A    between atoms: _443  and  _444
REMARK  186  A    between atoms: _443  and  _446
REMARK  187  A    between atoms: _446  and  _447
REMARK  188  A    between atoms: _450  and  _452
REMARK  189  A    between atoms: _452  and  _453
REMARK  190  A    between atoms: _455  and  _457
REMARK  191  A    between atoms: _457  and  _458
REMARK  192  A    between atoms: _460  and  _462
REMARK  193  A    between atoms: _462  and  _463
REMARK  194  A    between atoms: _462  and  _465
REMARK  195  A    between atoms: _465  and  _466
REMARK  196  A    between atoms: _472  and  _474
REMARK  197  A    between atoms: _474  and  _475
REMARK  198  A    between atoms: _474  and  _477
REMARK  199  A    between atoms: _477  and  _478
REMARK  200  A    between atoms: _481  and  _483
REMARK  201  A    between atoms: _483  and  _484
REMARK  202  A    between atoms: _483  and  _486
REMARK  203  A    between atoms: _489  and  _491
REMARK  204  A    between atoms: _491  and  _492
REMARK  205  A    between atoms: _491  and  _494
REMARK  206  A    between atoms: _494  and  _495
REMARK  207  A    between atoms: _499  and  _500
REMARK  208  A    between atoms: _505  and  _507
REMARK  209  A    between atoms: _507  and  _508
REMARK  210  A    between atoms: _507  and  _510
REMARK  211  A    between atoms: _510  and  _511
REMARK  212  A    between atoms: _515  and  _516
REMARK  213  A    between atoms: _521  and  _523
REMARK  214  A    between atoms: _523  and  _524
REMARK  215  A    between atoms: _523  and  _526
REMARK  216  A    between atoms: _529  and  _531
REMARK  217  A    between atoms: _531  and  _532
REMARK  218  A    between atoms: _531  and  _534
REMARK  219  A    between atoms: _534  and  _535
REMARK  220  A    between atoms: _540  and  _542
REMARK  221  A    between atoms: _542  and  _543
REMARK  222  A    between atoms: _542  and  _545
REMARK  223  A    between atoms: _545  and  _546
REMARK  224  A    between atoms: _549  and  _551
REMARK  225  A    between atoms: _551  and  _552
REMARK  226  A    between atoms: _551  and  _554
REMARK  227  A    between atoms: _554  and  _555
REMARK  228  A    between atoms: _558  and  _560
REMARK  229  A    between atoms: _560  and  _561
REMARK  230  A    between atoms: _563  and  _565
REMARK  231  A    between atoms: _565  and  _566
REMARK  232  A    between atoms: _565  and  _568
REMARK  233  A    between atoms: _568  and  _569
REMARK  234  A    between atoms: _569  and  _570
REMARK  235  A    between atoms: _570  and  _571
REMARK  236  A    between atoms: _580  and  _582
REMARK  237  A    between atoms: _582  and  _583
REMARK  238  A    between atoms: _582  and  _585
REMARK  239  A    between atoms: _585  and  _586
REMARK                            x       y       z     vdW  Elec       q    Type
REMARK                         _______ _______ _______ _____ _____    ______ ____
ROOT
ATOM      1  CA  ILE A   6      15.673  22.637  26.498  0.00  0.00    +0.149 C 
ENDROOT
BRANCH   1   4
ATOM      2  C   ASN A   5      17.803  22.358  27.531  0.00  0.00    +0.241 C 
ATOM      3  O   ASN A   5      18.086  23.567  27.502  0.00  0.00    -0.273 OA
ATOM      4  N   ILE A   6      16.677  21.784  27.112  0.00  0.00    -0.297 N 
ATOM      5  H   ILE A   6      16.521  20.761  27.220  0.00  0.00    +0.150 HD
BRANCH   2   6
ATOM      6  CA  ASN A   5      18.826  21.403  28.155  0.00  0.00    +0.158 C 
BRANCH   6   8
ATOM      7  C   VAL A   4      20.326  21.312  26.243  0.00  0.00    +0.241 C 
ATOM      8  N   ASN A   5      20.121  21.627  27.522  0.00  0.00    -0.297 N 
ATOM      9  H   ASN A   5      20.897  22.039  28.078  0.00  0.00    +0.150 HD
ATOM     10  O   VAL A   4      19.500  20.703  25.562  0.00  0.00    -0.273 OA
BRANCH   7  11
ATOM     11  CA  VAL A   4      21.668  21.738  25.654  0.00  0.00    +0.149 C 
BRANCH  11  14
ATOM     12  C   PRO A   3      23.318  20.417  24.411  0.00  0.00    +0.241 C 
ATOM     13  O   PRO A   3      24.279  20.917  24.960  0.00  0.00    -0.273 OA
ATOM     14  N   VAL A   4      22.074  20.750  24.652  0.00  0.00    -0.297 N 
ATOM     15  H   VAL A   4      21.328  20.284  24.097  0.00  0.00    +0.150 HD
BRANCH  12  19
ATOM     16  C   THR A   2      22.093  17.643  24.017  0.00  0.00    +0.246 C 
ATOM     17  O   THR A   2      22.733  17.568  25.084  0.00  0.00    -0.273 OA
ATOM     18  N   PRO A   3      22.474  18.484  23.050  0.00  0.00    -0.272 N 
ATOM     19  CA  PRO A   3      23.582  19.407  23.310  0.00  0.00    +0.152 C 
ATOM     20  CB  PRO A   3      23.773  20.170  22.000  0.00  0.00    +0.031 C 
ATOM     21  CG  PRO A   3      22.568  19.887  21.188  0.00  0.00    +0.024 C 
ATOM     22  CD  PRO A   3      21.960  18.608  21.683  0.00  0.00    +0.094 C 
BRANCH  16  23
ATOM     23  CA  THR A   2      20.906  16.718  23.758  0.00  0.00    +0.176 C 
BRANCH  23  25
ATOM     24  C   PRO A   1      21.914  14.512  23.570  0.00  0.00    +0.239 C 
ATOM     25  N   THR A   2      21.162  15.371  24.273  0.00  0.00    -0.295 N 
ATOM     26  H   THR A   2      20.759  15.080  25.187  0.00  0.00    +0.150 HD
ATOM     27  O   PRO A   1      22.329  14.715  22.431  0.00  0.00    -0.274 OA
BRANCH  24  29
ATOM     28  N   PRO A   1      21.086  12.478  24.806  0.00  0.00    -0.210 NA
ATOM     29  CA  PRO A   1      22.264  13.260  24.340  0.00  0.00    +0.149 C 
ATOM     30  CB  PRO A   1      22.976  12.253  23.451  0.00  0.00    +0.028 C 
ATOM     31  CG  PRO A   1      21.886  11.348  22.956  0.00  0.00    +0.021 C 
ATOM     32  CD  PRO A   1      20.853  11.260  24.015  0.00  0.00    +0.089 C 
ENDBRANCH  24  29
ENDBRANCH  23  25
BRANCH  23  33
ATOM     33  CB  THR A   2      19.627  17.349  24.350  0.00  0.00    +0.137 C 
ATOM     34  CG2 THR A   2      19.712  17.416  25.883  0.00  0.00    +0.034 C 
BRANCH  33  35
ATOM     35  OG1 THR A   2      19.490  18.660  23.812  0.00  0.00    -0.382 OA
ATOM     36  HG1 THR A   2      20.282  19.201  24.057  0.00  0.00    +0.210 HD
ENDBRANCH  33  35
ENDBRANCH  23  33
ENDBRANCH  16  23
ENDBRANCH  12  19
ENDBRANCH  11  14
BRANCH  11  37
ATOM     37  CB  VAL A   4      21.643  23.143  25.027  0.00  0.00    +0.027 C 
ATOM     38  CG2 VAL A   4      20.584  24.098  25.554  0.00  0.00    +0.002 C 
ATOM     39  CG1 VAL A   4      21.480  23.039  23.513  0.00  0.00    +0.002 C 
ENDBRANCH  11  37
ENDBRANCH   7  11
ENDBRANCH   6   8
BRANCH   6  40
ATOM     40  CB  ASN A   5      18.879  21.639  29.661  0.00  0.00    +0.114 C 
BRANCH  40  41
ATOM     41  CG  ASN A   5      19.841  20.707  30.365  0.00  0.00    +0.222 C 
ATOM     42  ND2 ASN A   5      20.403  21.200  31.463  0.00  0.00    -0.329 N 
ATOM     43 HD21 ASN A   5      21.052  20.612  32.024  0.00  0.00    +0.145 HD
ATOM     44 HD22 ASN A   5      20.194  22.174  31.762  0.00  0.00    +0.145 HD
ATOM     45  OD1 ASN A   5      20.061  19.558  29.974  0.00  0.00    -0.275 OA
ENDBRANCH  40  41
ENDBRANCH   6  40
ENDBRANCH   2   6
ENDBRANCH   1   4
BRANCH   1  46
ATOM     46  C   ILE A   6      14.315  22.382  27.154  0.00  0.00    +0.241 C 
ATOM     47  O   ILE A   6      13.897  21.262  27.437  0.00  0.00    -0.273 OA
ATOM     48  N   ILE A   7      13.612  23.477  27.411  0.00  0.00    -0.297 N 
ATOM     49  H   ILE A   7      14.076  24.396  27.266  0.00  0.00    +0.150 HD
BRANCH  48  50
ATOM     50  CA  ILE A   7      12.228  23.478  27.884  0.00  0.00    +0.149 C 
BRANCH  50  51
ATOM     51  C   ILE A   7      11.301  23.724  26.702  0.00  0.00    +0.241 C 
ATOM     52  N   GLY A   8      10.545  22.710  26.349  0.00  0.00    -0.295 N 
ATOM     53  H   GLY A   8      10.577  21.841  26.919  0.00  0.00    +0.150 HD
ATOM     54  O   ILE A   7      11.308  24.808  26.123  0.00  0.00    -0.273 OA
BRANCH  52  55
ATOM     55  CA  GLY A   8       9.670  22.755  25.198  0.00  0.00    +0.176 C 
BRANCH  55  56
ATOM     56  C   GLY A   8       8.247  23.076  25.512  0.00  0.00    +0.243 C 
ATOM     57  O   GLY A   8       7.882  23.374  26.655  0.00  0.00    -0.273 OA
ATOM     58  N   ARG A   9       7.444  23.013  24.453  0.00  0.00    -0.297 N 
ATOM     59  H   ARG A   9       7.775  22.607  23.555  0.00  0.00    +0.150 HD
BRANCH  58  60
ATOM     60  CA  ARG A   9       6.064  23.538  24.590  0.00  0.00    +0.149 C 
BRANCH  60  61
ATOM     61  C   ARG A   9       5.262  22.787  25.629  0.00  0.00    +0.241 C 
ATOM     62  O   ARG A   9       4.360  23.361  26.230  0.00  0.00    -0.273 OA
ATOM     63  N   ASN A  10       5.531  21.488  25.813  0.00  0.00    -0.298 N 
ATOM     64  H   ASN A  10       6.272  21.026  25.248  0.00  0.00    +0.150 HD
BRANCH  63  65
ATOM     65  CA  ASN A  10       4.792  20.726  26.796  0.00  0.00    +0.146 C 
BRANCH  65  66
ATOM     66  C   ASN A  10       4.869  21.394  28.181  0.00  0.00    +0.227 C 
ATOM     67  O   ASN A  10       3.835  21.348  28.896  0.00  0.00    -0.286 OA
ENDBRANCH  65  66
BRANCH  65  68
ATOM     68  CB  ASN A  10       5.272  19.288  26.867  0.00  0.00    +0.112 C 
BRANCH  68  69
ATOM     69  CG  ASN A  10       6.579  19.053  27.557  0.00  0.00    +0.222 C 
ATOM     70  ND2 ASN A  10       6.565  18.170  28.556  0.00  0.00    -0.329 N 
ATOM     71 HD21 ASN A  10       7.440  17.961  29.078  0.00  0.00    +0.145 HD
ATOM     72 HD22 ASN A  10       5.679  17.690  28.813  0.00  0.00    +0.145 HD
ATOM     73  OD1 ASN A  10       7.534  19.683  27.152  0.00  0.00    -0.275 OA
ENDBRANCH  68  69
ENDBRANCH  65  68
ENDBRANCH  63  65
ENDBRANCH  60  61
BRANCH  60  74
ATOM     74  CB  ARG A   9       5.372  23.527  23.209  0.00  0.00    +0.033 C 
BRANCH  74  75
ATOM     75  CG  ARG A   9       6.021  24.498  22.229  0.00  0.00    +0.045 C 
BRANCH  75  76
ATOM     76  CD  ARG A   9       5.316  24.715  20.895  0.00  0.00    +0.174 C 
BRANCH  76  77
ATOM     77  NE  ARG A   9       5.277  23.431  20.198  0.00  0.00    -0.265 N 
ATOM     78  CZ  ARG A   9       4.329  22.530  20.213  0.00  0.00    +0.342 C 
ATOM     79  NH2 ARG A   9       3.181  22.735  20.877  0.00  0.00    -0.292 N 
ATOM     80 HH21 ARG A   9       3.031  23.625  21.394  0.00  0.00    +0.255 HD
ATOM     81 HH22 ARG A   9       2.441  22.004  20.875  0.00  0.00    +0.255 HD
ATOM     82  NH1 ARG A   9       4.459  21.369  19.539  0.00  0.00    -0.292 N 
ATOM     83 HH11 ARG A   9       3.694  20.665  19.563  0.00  0.00    +0.255 HD
ATOM     84 HH12 ARG A   9       5.324  21.178  18.995  0.00  0.00    +0.255 HD
ATOM     85  HE  ARG A   9       6.109  23.205  19.616  0.00  0.00    +0.259 HD
ENDBRANCH  76  77
ENDBRANCH  75  76
ENDBRANCH  74  75
ENDBRANCH  60  74
ENDBRANCH  58  60
ENDBRANCH  55  56
ENDBRANCH  52  55
ENDBRANCH  50  51
BRANCH  50  86
ATOM     86  CB  ILE A   7      12.015  24.528  28.984  0.00  0.00    +0.027 C 
ATOM     87  CG2 ILE A   7      10.592  24.454  29.489  0.00  0.00    +0.002 C 
BRANCH  86  88
ATOM     88  CG1 ILE A   7      13.018  24.421  30.134  0.00  0.00    +0.002 C 
ATOM     89  CD1 ILE A   7      13.163  23.028  30.719  0.00  0.00    +0.000 C 
ENDBRANCH  86  88
ENDBRANCH  50  86
ENDBRANCH  48  50
ENDBRANCH   1  46
BRANCH   1  90
ATOM     90  CB  ILE A   6      15.591  22.454  24.978  0.00  0.00    +0.027 C 
ATOM     91  CG2 ILE A   6      16.905  22.885  24.319  0.00  0.00    +0.002 C 
BRANCH  90  92
ATOM     92  CG1 ILE A   6      15.239  21.065  24.513  0.00  0.00    +0.002 C 
ATOM     93  CD1 ILE A   6      15.193  20.858  23.028  0.00  0.00    +0.000 C 
ENDBRANCH  90  92
ENDBRANCH   1  90
TORSDOF 33
REMARK  Name = ../refined-set-2016/2aod/2aod_pocket.pdb
REMARK  239 active torsions:
REMARK  status: ('A' for Active; 'I' for Inactive)
REMARK    1  A    between atoms: _1  and  _3
REMARK    2  A    between atoms: _3  and  _4
REMARK    3  A    between atoms: _3  and  _6
REMARK    4  A    between atoms: _6  and  _7
REMARK    5  A    between atoms: _7  and  _8
REMARK    6  A    between atoms: _8  and  _9
REMARK    7  A    between atoms: _18  and  _20
REMARK    8  A    between atoms: _20  and  _21
REMARK    9  A    between atoms: _20  and  _23
REMARK   10  A    between atoms: _23  and  _24
REMARK   11  A    between atoms: _27  and  _29
REMARK   12  A    between atoms: _29  and  _30
REMARK   13  A    between atoms: _29  and  _32
REMARK   14  A    between atoms: _32  and  _33
REMARK   15  A    between atoms: _33  and  _34
REMARK   16  A    between atoms: _37  and  _39
REMARK   17  A    between atoms: _39  and  _40
REMARK   18  A    between atoms: _39  and  _42
REMARK   19  A    between atoms: _42  and  _43
REMARK   20  A    between atoms: _46  and  _48
REMARK   21  A    between atoms: _48  and  _49
REMARK   22  A    between atoms: _48  and  _51
REMARK   23  A    between atoms: _51  and  _52
REMARK   24  A    between atoms: _55  and  _57
REMARK   25  A    between atoms: _57  and  _58
REMARK   26  A    between atoms: _57  and  _60
REMARK   27  A    between atoms: _60  and  _61
REMARK   28  A    between atoms: _64  and  _66
REMARK   29  A    between atoms: _66  and  _67
REMARK   30  A    between atoms: _69  and  _71
REMARK   31  A    between atoms: _71  and  _72
REMARK   32  A    between atoms: _75  and  _77
REMARK   33  A    between atoms: _77  and  _78
REMARK   34  A    between atoms: _77  and  _80
REMARK   35  A    between atoms: _80  and  _81
REMARK   36  A    between atoms: _84  and  _86
REMARK   37  A    between atoms: _86  and  _87
REMARK   38  A    between atoms: _86  and  _89
REMARK   39  A    between atoms: _89  and  _90
REMARK   40  A    between atoms: _93  and  _95
REMARK   41  A    between atoms: _95  and  _96
REMARK   42  A    between atoms: _95  and  _98
REMARK   43  A    between atoms: _98  and  _99
REMARK   44  A    between atoms: _102  and  _104
REMARK   45  A    between atoms: _104  and  _105
REMARK   46  A    between atoms: _104  and  _107
REMARK   47  A    between atoms: _110  and  _112
REMARK   48  A    between atoms: _112  and  _113
REMARK   49  A    between atoms: _112  and  _115
REMARK   50  A    between atoms: _115  and  _116
REMARK   51  A    between atoms: _116  and  _117
REMARK   52  A    between atoms: _117  and  _118
REMARK   53  A    between atoms: _118  and  _119
REMARK   54  A    between atoms: _123  and  _125
REMARK   55  A    between atoms: _125  and  _126
REMARK   56  A    between atoms: _125  and  _128
REMARK   57  A    between atoms: _128  and  _129
REMARK   58  A    between atoms: _129  and  _130
REMARK   59  A    between atoms: _132  and  _134
REMARK   60  A    between atoms: _134  and  _135
REMARK   61  A    between atoms: _134  and  _137
REMARK   62  A    between atoms: _137  and  _138
REMARK   63  A    between atoms: _141  and  _143
REMARK   64  A    between atoms: _143  and  _144
REMARK   65  A    between atoms: _146  and  _148
REMARK   66  A    between atoms: _148  and  _149
REMARK   67  A    between atoms: _151  and  _153
REMARK   68  A    between atoms: _153  and  _154
REMARK   69  A    between atoms: _153  and  _156
REMARK   70  A    between atoms: _156  and  _157
REMARK   71  A    between atoms: _160  and  _162
REMARK   72  A    between atoms: _162  and  _163
REMARK   73  A    between atoms: _165  and  _167
REMARK   74  A    between atoms: _167  and  _168
REMARK   75  A    between atoms: _170  and  _172
REMARK   76  A    between atoms: _172  and  _173
REMARK   77  A    between atoms: _172  and  _175
REMARK   78  A    between atoms: _175  and  _176
REMARK   79  A    between atoms: _182  and  _184
REMARK   80  A    between atoms: _184  and  _185
REMARK   81  A    between atoms: _184  and  _187
REMARK   82  A    between atoms: _187  and  _188
REMARK   83  A    between atoms: _191  and  _193
REMARK   84  A    between atoms: _193  and  _194
REMARK   85  A    between atoms: _193  and  _196
REMARK   86  A    between atoms: _199  and  _201
REMARK   87  A    between atoms: _201  and  _202
REMARK   88  A    between atoms: _201  and  _204
REMARK   89  A    between atoms: _204  and  _205
REMARK   90  A    between atoms: _209  and  _210
REMARK   91  A    between atoms: _215  and  _217
REMARK   92  A    between atoms: _217  and  _218
REMARK   93  A    between atoms: _217  and  _220
REMARK   94  A    between atoms: _220  and  _221
REMARK   95  A    between atoms: _225  and  _226
REMARK   96  A    between atoms: _231  and  _233
REMARK   97  A    between atoms: _233  and  _234
REMARK   98  A    between atoms: _233  and  _236
REMARK   99  A    between atoms: _239  and  _241
REMARK  100  A    between atoms: _241  and  _242
REMARK  101  A    between atoms: _241  and  _244
REMARK  102  A    between atoms: _244  and  _245
REMARK  103  A    between atoms: _250  and  _252
REMARK  104  A    between atoms: _252  and  _253
REMARK  105  A    between atoms: _252  and  _255
REMARK  106  A    between atoms: _255  and  _256
REMARK  107  A    between atoms: _259  and  _261
REMARK  108  A    between atoms: _261  and  _262
REMARK  109  A    between atoms: _261  and  _264
REMARK  110  A    between atoms: _264  and  _265
REMARK  111  A    between atoms: _268  and  _270
REMARK  112  A    between atoms: _270  and  _271
REMARK  113  A    between atoms: _273  and  _275
REMARK  114  A    between atoms: _275  and  _276
REMARK  115  A    between atoms: _275  and  _278
REMARK  116  A    between atoms: _278  and  _279
REMARK  117  A    between atoms: _279  and  _280
REMARK  118  A    between atoms: _280  and  _281
REMARK  119  A    between atoms: _290  and  _292
REMARK  120  A    between atoms: _292  and  _293
REMARK  121  A    between atoms: _292  and  _295
REMARK  122  A    between atoms: _295  and  _296
REMARK  123  A    between atoms: _301  and  _303
REMARK  124  A    between atoms: _303  and  _304
REMARK  125  A    between atoms: _303  and  _306
REMARK  126  A    between atoms: _306  and  _307
REMARK  127  A    between atoms: _307  and  _308
REMARK  128  A    between atoms: _308  and  _309
REMARK  129  A    between atoms: _318  and  _320
REMARK  130  A    between atoms: _320  and  _321
REMARK  131  A    between atoms: _320  and  _323
REMARK  132  A    between atoms: _323  and  _324
REMARK  133  A    between atoms: _327  and  _329
REMARK  134  A    between atoms: _329  and  _330
REMARK  135  A    between atoms: _329  and  _332
REMARK  136  A    between atoms: _332  and  _333
REMARK  137  A    between atoms: _336  and  _338
REMARK  138  A    between atoms: _338  and  _339
REMARK  139  A    between atoms: _338  and  _341
REMARK  140  A    between atoms: _341  and  _342
REMARK  141  A    between atoms: _345  and  _347
REMARK  142  A    between atoms: _347  and  _348
REMARK  143  A    between atoms: _347  and  _350
REMARK  144  A    between atoms: _350  and  _351
REMARK  145  A    between atoms: _354  and  _356
REMARK  146  A    between atoms: _356  and  _357
REMARK  147  A    between atoms: _359  and  _361
REMARK  148  A    between atoms: _361  and  _362
REMARK  149  A    between atoms: _365  and  _367
REMARK  150  A    between atoms: _367  and  _368
REMARK  151  A    between atoms: _367  and  _370
REMARK  152  A    between atoms: _370  and  _371
REMARK  153  A    between atoms: _374  and  _376
REMARK  154  A    between atoms: _376  and  _377
REMARK  155  A    between atoms: _376  and  _379
REMARK  156  A    between atoms: _379  and  _380
REMARK  157  A    between atoms: _383  and  _385
REMARK  158  A    between atoms: _385  and  _386
REMARK  159  A    between atoms: _385  and  _388
REMARK  160  A    between atoms: _388  and  _389
REMARK  161  A    between atoms: _392  and  _394
REMARK  162  A    between atoms: _394  and  _395
REMARK  163  A    between atoms: _394  and  _397
REMARK  164  A    between atoms: _400  and  _402
REMARK  165  A    between atoms: _402  and  _403
REMARK  166  A    between atoms: _402  and  _405
REMARK  167  A    between atoms: _405  and  _406
REMARK  168  A    between atoms: _406  and  _407
REMARK  169  A    between atoms: _407  and  _408
REMARK  170  A    between atoms: _408  and  _409
REMARK  171  A    between atoms: _413  and  _415
REMARK  172  A    between atoms: _415  and  _416
REMARK  173  A    between atoms: _415  and  _418
REMARK  174  A    between atoms: _418  and  _419
REMARK  175  A    between atoms: _419  and  _420
REMARK  176  A    between atoms: _422  and  _424
REMARK  177  A    between atoms: _424  and  _425
REMARK  178  A    between atoms: _424  and  _427
REMARK  179  A    between atoms: _427  and  _428
REMARK  180  A    between atoms: _431  and  _433
REMARK  181  A    between atoms: _433  and  _434
REMARK  182  A    between atoms: _436  and  _438
REMARK  183  A    between atoms: _438  and  _439
REMARK  184  A    between atoms: _441  and  _443
REMARK  185  A    between atoms: _443  and  _444
REMARK  186  A    between atoms: _443  and  _446
REMARK  187  A    between atoms: _446  and  _447
REMARK  188  A    between atoms: _450  and  _452
REMARK  189  A    between atoms: _452  and  _453
REMARK  190  A    between atoms: _455  and  _457
REMARK  191  A    between atoms: _457  and  _458
REMARK  192  A    between atoms: _460  and  _462
REMARK  193  A    between atoms: _462  and  _463
REMARK  194  A    between atoms: _462  and  _465
REMARK  195  A    between atoms: _465  and  _466
REMARK  196  A    between atoms: _472  and  _474
REMARK  197  A    between atoms: _474  and  _475
REMARK  198  A    between atoms: _474  and  _477
REMARK  199  A    between atoms: _477  and  _478
REMARK  200  A    between atoms: _481  and  _483
REMARK  201  A    between atoms: _483  and  _484
REMARK  202  A    between atoms: _483  and  _486
REMARK  203  A    between atoms: _489  and  _491
REMARK  204  A    between atoms: _491  and  _492
REMARK  205  A    between atoms: _491  and  _494
REMARK  206  A    between atoms: _494  and  _495
REMARK  207  A    between atoms: _499  and  _500
REMARK  208  A    between atoms: _505  and  _507
REMARK  209  A    between atoms: _507  and  _508
REMARK  210  A    between atoms: _507  and  _510
REMARK  211  A    between atoms: _510  and  _511
REMARK  212  A    between atoms: _515  and  _516
REMARK  213  A    between atoms: _521  and  _523
REMARK  214  A    between atoms: _523  and  _524
REMARK  215  A    between atoms: _523  and  _526
REMARK  216  A    between atoms: _529  and  _531
REMARK  217  A    between atoms: _531  and  _532
REMARK  218  A    between atoms: _531  and  _534
REMARK  219  A    between atoms: _534  and  _535
REMARK  220  A    between atoms: _540  and  _542
REMARK  221  A    between atoms: _542  and  _543
REMARK  222  A    between atoms: _542  and  _545
REMARK  223  A    between atoms: _545  and  _546
REMARK  224  A    between atoms: _549  and  _551
REMARK  225  A    between atoms: _551  and  _552
REMARK  226  A    between atoms: _551  and  _554
REMARK  227  A    between atoms: _554  and  _555
REMARK  228  A    between atoms: _558  and  _560
REMARK  229  A    between atoms: _560  and  _561
REMARK  230  A    between atoms: _563  and  _565
REMARK  231  A    between atoms: _565  and  _566
REMARK  232  A    between atoms: _565  and  _568
REMARK  233  A    between atoms: _568  and  _569
REMARK  234  A    between atoms: _569  and  _570
REMARK  235  A    between atoms: _570  and  _571
REMARK  236  A    between atoms: _580  and  _582
REMARK  237  A    between atoms: _582  and  _583
REMARK  238  A    between atoms: _582  and  _585
REMARK  239  A    between atoms: _585  and  _586
REMARK                            x       y       z     vdW  Elec       q    Type
REMARK                         _______ _______ _______ _____ _____    ______ ____
ROOT
ATOM      1  O   HOH     1      20.316  28.594  20.994  0.00  0.00    +0.000 OA
ENDROOT
TORSDOF 0
REMARK  Name = ../refined-set-2016/2aod/2aod_pocket.pdb
REMARK  239 active torsions:
REMARK  status: ('A' for Active; 'I' for Inactive)
REMARK    1  A    between atoms: _1  and  _3
REMARK    2  A    between atoms: _3  and  _4
REMARK    3  A    between atoms: _3  and  _6
REMARK    4  A    between atoms: _6  and  _7
REMARK    5  A    between atoms: _7  and  _8
REMARK    6  A    between atoms: _8  and  _9
REMARK    7  A    between atoms: _18  and  _20
REMARK    8  A    between atoms: _20  and  _21
REMARK    9  A    between atoms: _20  and  _23
REMARK   10  A    between atoms: _23  and  _24
REMARK   11  A    between atoms: _27  and  _29
REMARK   12  A    between atoms: _29  and  _30
REMARK   13  A    between atoms: _29  and  _32
REMARK   14  A    between atoms: _32  and  _33
REMARK   15  A    between atoms: _33  and  _34
REMARK   16  A    between atoms: _37  and  _39
REMARK   17  A    between atoms: _39  and  _40
REMARK   18  A    between atoms: _39  and  _42
REMARK   19  A    between atoms: _42  and  _43
REMARK   20  A    between atoms: _46  and  _48
REMARK   21  A    between atoms: _48  and  _49
REMARK   22  A    between atoms: _48  and  _51
REMARK   23  A    between atoms: _51  and  _52
REMARK   24  A    between atoms: _55  and  _57
REMARK   25  A    between atoms: _57  and  _58
REMARK   26  A    between atoms: _57  and  _60
REMARK   27  A    between atoms: _60  and  _61
REMARK   28  A    between atoms: _64  and  _66
REMARK   29  A    between atoms: _66  and  _67
REMARK   30  A    between atoms: _69  and  _71
REMARK   31  A    between atoms: _71  and  _72
REMARK   32  A    between atoms: _75  and  _77
REMARK   33  A    between atoms: _77  and  _78
REMARK   34  A    between atoms: _77  and  _80
REMARK   35  A    between atoms: _80  and  _81
REMARK   36  A    between atoms: _84  and  _86
REMARK   37  A    between atoms: _86  and  _87
REMARK   38  A    between atoms: _86  and  _89
REMARK   39  A    between atoms: _89  and  _90
REMARK   40  A    between atoms: _93  and  _95
REMARK   41  A    between atoms: _95  and  _96
REMARK   42  A    between atoms: _95  and  _98
REMARK   43  A    between atoms: _98  and  _99
REMARK   44  A    between atoms: _102  and  _104
REMARK   45  A    between atoms: _104  and  _105
REMARK   46  A    between atoms: _104  and  _107
REMARK   47  A    between atoms: _110  and  _112
REMARK   48  A    between atoms: _112  and  _113
REMARK   49  A    between atoms: _112  and  _115
REMARK   50  A    between atoms: _115  and  _116
REMARK   51  A    between atoms: _116  and  _117
REMARK   52  A    between atoms: _117  and  _118
REMARK   53  A    between atoms: _118  and  _119
REMARK   54  A    between atoms: _123  and  _125
REMARK   55  A    between atoms: _125  and  _126
REMARK   56  A    between atoms: _125  and  _128
REMARK   57  A    between atoms: _128  and  _129
REMARK   58  A    between atoms: _129  and  _130
REMARK   59  A    between atoms: _132  and  _134
REMARK   60  A    between atoms: _134  and  _135
REMARK   61  A    between atoms: _134  and  _137
REMARK   62  A    between atoms: _137  and  _138
REMARK   63  A    between atoms: _141  and  _143
REMARK   64  A    between atoms: _143  and  _144
REMARK   65  A    between atoms: _146  and  _148
REMARK   66  A    between atoms: _148  and  _149
REMARK   67  A    between atoms: _151  and  _153
REMARK   68  A    between atoms: _153  and  _154
REMARK   69  A    between atoms: _153  and  _156
REMARK   70  A    between atoms: _156  and  _157
REMARK   71  A    between atoms: _160  and  _162
REMARK   72  A    between atoms: _162  and  _163
REMARK   73  A    between atoms: _165  and  _167
REMARK   74  A    between atoms: _167  and  _168
REMARK   75  A    between atoms: _170  and  _172
REMARK   76  A    between atoms: _172  and  _173
REMARK   77  A    between atoms: _172  and  _175
REMARK   78  A    between atoms: _175  and  _176
REMARK   79  A    between atoms: _182  and  _184
REMARK   80  A    between atoms: _184  and  _185
REMARK   81  A    between atoms: _184  and  _187
REMARK   82  A    between atoms: _187  and  _188
REMARK   83  A    between atoms: _191  and  _193
REMARK   84  A    between atoms: _193  and  _194
REMARK   85  A    between atoms: _193  and  _196
REMARK   86  A    between atoms: _199  and  _201
REMARK   87  A    between atoms: _201  and  _202
REMARK   88  A    between atoms: _201  and  _204
REMARK   89  A    between atoms: _204  and  _205
REMARK   90  A    between atoms: _209  and  _210
REMARK   91  A    between atoms: _215  and  _217
REMARK   92  A    between atoms: _217  and  _218
REMARK   93  A    between atoms: _217  and  _220
REMARK   94  A    between atoms: _220  and  _221
REMARK   95  A    between atoms: _225  and  _226
REMARK   96  A    between atoms: _231  and  _233
REMARK   97  A    between atoms: _233  and  _234
REMARK   98  A    between atoms: _233  and  _236
REMARK   99  A    between atoms: _239  and  _241
REMARK  100  A    between atoms: _241  and  _242
REMARK  101  A    between atoms: _241  and  _244
REMARK  102  A    between atoms: _244  and  _245
REMARK  103  A    between atoms: _250  and  _252
REMARK  104  A    between atoms: _252  and  _253
REMARK  105  A    between atoms: _252  and  _255
REMARK  106  A    between atoms: _255  and  _256
REMARK  107  A    between atoms: _259  and  _261
REMARK  108  A    between atoms: _261  and  _262
REMARK  109  A    between atoms: _261  and  _264
REMARK  110  A    between atoms: _264  and  _265
REMARK  111  A    between atoms: _268  and  _270
REMARK  112  A    between atoms: _270  and  _271
REMARK  113  A    between atoms: _273  and  _275
REMARK  114  A    between atoms: _275  and  _276
REMARK  115  A    between atoms: _275  and  _278
REMARK  116  A    between atoms: _278  and  _279
REMARK  117  A    between atoms: _279  and  _280
REMARK  118  A    between atoms: _280  and  _281
REMARK  119  A    between atoms: _290  and  _292
REMARK  120  A    between atoms: _292  and  _293
REMARK  121  A    between atoms: _292  and  _295
REMARK  122  A    between atoms: _295  and  _296
REMARK  123  A    between atoms: _301  and  _303
REMARK  124  A    between atoms: _303  and  _304
REMARK  125  A    between atoms: _303  and  _306
REMARK  126  A    between atoms: _306  and  _307
REMARK  127  A    between atoms: _307  and  _308
REMARK  128  A    between atoms: _308  and  _309
REMARK  129  A    between atoms: _318  and  _320
REMARK  130  A    between atoms: _320  and  _321
REMARK  131  A    between atoms: _320  and  _323
REMARK  132  A    between atoms: _323  and  _324
REMARK  133  A    between atoms: _327  and  _329
REMARK  134  A    between atoms: _329  and  _330
REMARK  135  A    between atoms: _329  and  _332
REMARK  136  A    between atoms: _332  and  _333
REMARK  137  A    between atoms: _336  and  _338
REMARK  138  A    between atoms: _338  and  _339
REMARK  139  A    between atoms: _338  and  _341
REMARK  140  A    between atoms: _341  and  _342
REMARK  141  A    between atoms: _345  and  _347
REMARK  142  A    between atoms: _347  and  _348
REMARK  143  A    between atoms: _347  and  _350
REMARK  144  A    between atoms: _350  and  _351
REMARK  145  A    between atoms: _354  and  _356
REMARK  146  A    between atoms: _356  and  _357
REMARK  147  A    between atoms: _359  and  _361
REMARK  148  A    between atoms: _361  and  _362
REMARK  149  A    between atoms: _365  and  _367
REMARK  150  A    between atoms: _367  and  _368
REMARK  151  A    between atoms: _367  and  _370
REMARK  152  A    between atoms: _370  and  _371
REMARK  153  A    between atoms: _374  and  _376
REMARK  154  A    between atoms: _376  and  _377
REMARK  155  A    between atoms: _376  and  _379
REMARK  156  A    between atoms: _379  and  _380
REMARK  157  A    between atoms: _383  and  _385
REMARK  158  A    between atoms: _385  and  _386
REMARK  159  A    between atoms: _385  and  _388
REMARK  160  A    between atoms: _388  and  _389
REMARK  161  A    between atoms: _392  and  _394
REMARK  162  A    between atoms: _394  and  _395
REMARK  163  A    between atoms: _394  and  _397
REMARK  164  A    between atoms: _400  and  _402
REMARK  165  A    between atoms: _402  and  _403
REMARK  166  A    between atoms: _402  and  _405
REMARK  167  A    between atoms: _405  and  _406
REMARK  168  A    between atoms: _406  and  _407
REMARK  169  A    between atoms: _407  and  _408
REMARK  170  A    between atoms: _408  and  _409
REMARK  171  A    between atoms: _413  and  _415
REMARK  172  A    between atoms: _415  and  _416
REMARK  173  A    between atoms: _415  and  _418
REMARK  174  A    between atoms: _418  and  _419
REMARK  175  A    between atoms: _419  and  _420
REMARK  176  A    between atoms: _422  and  _424
REMARK  177  A    between atoms: _424  and  _425
REMARK  178  A    between atoms: _424  and  _427
REMARK  179  A    between atoms: _427  and  _428
REMARK  180  A    between atoms: _431  and  _433
REMARK  181  A    between atoms: _433  and  _434
REMARK  182  A    between atoms: _436  and  _438
REMARK  183  A    between atoms: _438  and  _439
REMARK  184  A    between atoms: _441  and  _443
REMARK  185  A    between atoms: _443  and  _444
REMARK  186  A    between atoms: _443  and  _446
REMARK  187  A    between atoms: _446  and  _447
REMARK  188  A    between atoms: _450  and  _452
REMARK  189  A    between atoms: _452  and  _453
REMARK  190  A    between atoms: _455  and  _457
REMARK  191  A    between atoms: _457  and  _458
REMARK  192  A    between atoms: _460  and  _462
REMARK  193  A    between atoms: _462  and  _463
REMARK  194  A    between atoms: _462  and  _465
REMARK  195  A    between atoms: _465  and  _466
REMARK  196  A    between atoms: _472  and  _474
REMARK  197  A    between atoms: _474  and  _475
REMARK  198  A    between atoms: _474  and  _477
REMARK  199  A    between atoms: _477  and  _478
REMARK  200  A    between atoms: _481  and  _483
REMARK  201  A    between atoms: _483  and  _484
REMARK  202  A    between atoms: _483  and  _486
REMARK  203  A    between atoms: _489  and  _491
REMARK  204  A    between atoms: _491  and  _492
REMARK  205  A    between atoms: _491  and  _494
REMARK  206  A    between atoms: _494  and  _495
REMARK  207  A    between atoms: _499  and  _500
REMARK  208  A    between atoms: _505  and  _507
REMARK  209  A    between atoms: _507  and  _508
REMARK  210  A    between atoms: _507  and  _510
REMARK  211  A    between atoms: _510  and  _511
REMARK  212  A    between atoms: _515  and  _516
REMARK  213  A    between atoms: _521  and  _523
REMARK  214  A    between atoms: _523  and  _524
REMARK  215  A    between atoms: _523  and  _526
REMARK  216  A    between atoms: _529  and  _531
REMARK  217  A    between atoms: _531  and  _532
REMARK  218  A    between atoms: _531  and  _534
REMARK  219  A    between atoms: _534  and  _535
REMARK  220  A    between atoms: _540  and  _542
REMARK  221  A    between atoms: _542  and  _543
REMARK  222  A    between atoms: _542  and  _545
REMARK  223  A    between atoms: _545  and  _546
REMARK  224  A    between atoms: _549  and  _551
REMARK  225  A    between atoms: _551  and  _552
REMARK  226  A    between atoms: _551  and  _554
REMARK  227  A    between atoms: _554  and  _555
REMARK  228  A    between atoms: _558  and  _560
REMARK  229  A    between atoms: _560  and  _561
REMARK  230  A    between atoms: _563  and  _565
REMARK  231  A    between atoms: _565  and  _566
REMARK  232  A    between atoms: _565  and  _568
REMARK  233  A    between atoms: _568  and  _569
REMARK  234  A    between atoms: _569  and  _570
REMARK  235  A    between atoms: _570  and  _571
REMARK  236  A    between atoms: _580  and  _582
REMARK  237  A    between atoms: _582  and  _583
REMARK  238  A    between atoms: _582  and  _585
REMARK  239  A    between atoms: _585  and  _586
REMARK                            x       y       z     vdW  Elec       q    Type
REMARK                         _______ _______ _______ _____ _____    ______ ____
ROOT
ATOM      1  O   HOH     1      18.481  30.650  21.656  0.00  0.00    +0.000 OA
ENDROOT
TORSDOF 0
REMARK  Name = ../refined-set-2016/2aod/2aod_pocket.pdb
REMARK  239 active torsions:
REMARK  status: ('A' for Active; 'I' for Inactive)
REMARK    1  A    between atoms: _1  and  _3
REMARK    2  A    between atoms: _3  and  _4
REMARK    3  A    between atoms: _3  and  _6
REMARK    4  A    between atoms: _6  and  _7
REMARK    5  A    between atoms: _7  and  _8
REMARK    6  A    between atoms: _8  and  _9
REMARK    7  A    between atoms: _18  and  _20
REMARK    8  A    between atoms: _20  and  _21
REMARK    9  A    between atoms: _20  and  _23
REMARK   10  A    between atoms: _23  and  _24
REMARK   11  A    between atoms: _27  and  _29
REMARK   12  A    between atoms: _29  and  _30
REMARK   13  A    between atoms: _29  and  _32
REMARK   14  A    between atoms: _32  and  _33
REMARK   15  A    between atoms: _33  and  _34
REMARK   16  A    between atoms: _37  and  _39
REMARK   17  A    between atoms: _39  and  _40
REMARK   18  A    between atoms: _39  and  _42
REMARK   19  A    between atoms: _42  and  _43
REMARK   20  A    between atoms: _46  and  _48
REMARK   21  A    between atoms: _48  and  _49
REMARK   22  A    between atoms: _48  and  _51
REMARK   23  A    between atoms: _51  and  _52
REMARK   24  A    between atoms: _55  and  _57
REMARK   25  A    between atoms: _57  and  _58
REMARK   26  A    between atoms: _57  and  _60
REMARK   27  A    between atoms: _60  and  _61
REMARK   28  A    between atoms: _64  and  _66
REMARK   29  A    between atoms: _66  and  _67
REMARK   30  A    between atoms: _69  and  _71
REMARK   31  A    between atoms: _71  and  _72
REMARK   32  A    between atoms: _75  and  _77
REMARK   33  A    between atoms: _77  and  _78
REMARK   34  A    between atoms: _77  and  _80
REMARK   35  A    between atoms: _80  and  _81
REMARK   36  A    between atoms: _84  and  _86
REMARK   37  A    between atoms: _86  and  _87
REMARK   38  A    between atoms: _86  and  _89
REMARK   39  A    between atoms: _89  and  _90
REMARK   40  A    between atoms: _93  and  _95
REMARK   41  A    between atoms: _95  and  _96
REMARK   42  A    between atoms: _95  and  _98
REMARK   43  A    between atoms: _98  and  _99
REMARK   44  A    between atoms: _102  and  _104
REMARK   45  A    between atoms: _104  and  _105
REMARK   46  A    between atoms: _104  and  _107
REMARK   47  A    between atoms: _110  and  _112
REMARK   48  A    between atoms: _112  and  _113
REMARK   49  A    between atoms: _112  and  _115
REMARK   50  A    between atoms: _115  and  _116
REMARK   51  A    between atoms: _116  and  _117
REMARK   52  A    between atoms: _117  and  _118
REMARK   53  A    between atoms: _118  and  _119
REMARK   54  A    between atoms: _123  and  _125
REMARK   55  A    between atoms: _125  and  _126
REMARK   56  A    between atoms: _125  and  _128
REMARK   57  A    between atoms: _128  and  _129
REMARK   58  A    between atoms: _129  and  _130
REMARK   59  A    between atoms: _132  and  _134
REMARK   60  A    between atoms: _134  and  _135
REMARK   61  A    between atoms: _134  and  _137
REMARK   62  A    between atoms: _137  and  _138
REMARK   63  A    between atoms: _141  and  _143
REMARK   64  A    between atoms: _143  and  _144
REMARK   65  A    between atoms: _146  and  _148
REMARK   66  A    between atoms: _148  and  _149
REMARK   67  A    between atoms: _151  and  _153
REMARK   68  A    between atoms: _153  and  _154
REMARK   69  A    between atoms: _153  and  _156
REMARK   70  A    between atoms: _156  and  _157
REMARK   71  A    between atoms: _160  and  _162
REMARK   72  A    between atoms: _162  and  _163
REMARK   73  A    between atoms: _165  and  _167
REMARK   74  A    between atoms: _167  and  _168
REMARK   75  A    between atoms: _170  and  _172
REMARK   76  A    between atoms: _172  and  _173
REMARK   77  A    between atoms: _172  and  _175
REMARK   78  A    between atoms: _175  and  _176
REMARK   79  A    between atoms: _182  and  _184
REMARK   80  A    between atoms: _184  and  _185
REMARK   81  A    between atoms: _184  and  _187
REMARK   82  A    between atoms: _187  and  _188
REMARK   83  A    between atoms: _191  and  _193
REMARK   84  A    between atoms: _193  and  _194
REMARK   85  A    between atoms: _193  and  _196
REMARK   86  A    between atoms: _199  and  _201
REMARK   87  A    between atoms: _201  and  _202
REMARK   88  A    between atoms: _201  and  _204
REMARK   89  A    between atoms: _204  and  _205
REMARK   90  A    between atoms: _209  and  _210
REMARK   91  A    between atoms: _215  and  _217
REMARK   92  A    between atoms: _217  and  _218
REMARK   93  A    between atoms: _217  and  _220
REMARK   94  A    between atoms: _220  and  _221
REMARK   95  A    between atoms: _225  and  _226
REMARK   96  A    between atoms: _231  and  _233
REMARK   97  A    between atoms: _233  and  _234
REMARK   98  A    between atoms: _233  and  _236
REMARK   99  A    between atoms: _239  and  _241
REMARK  100  A    between atoms: _241  and  _242
REMARK  101  A    between atoms: _241  and  _244
REMARK  102  A    between atoms: _244  and  _245
REMARK  103  A    between atoms: _250  and  _252
REMARK  104  A    between atoms: _252  and  _253
REMARK  105  A    between atoms: _252  and  _255
REMARK  106  A    between atoms: _255  and  _256
REMARK  107  A    between atoms: _259  and  _261
REMARK  108  A    between atoms: _261  and  _262
REMARK  109  A    between atoms: _261  and  _264
REMARK  110  A    between atoms: _264  and  _265
REMARK  111  A    between atoms: _268  and  _270
REMARK  112  A    between atoms: _270  and  _271
REMARK  113  A    between atoms: _273  and  _275
REMARK  114  A    between atoms: _275  and  _276
REMARK  115  A    between atoms: _275  and  _278
REMARK  116  A    between atoms: _278  and  _279
REMARK  117  A    between atoms: _279  and  _280
REMARK  118  A    between atoms: _280  and  _281
REMARK  119  A    between atoms: _290  and  _292
REMARK  120  A    between atoms: _292  and  _293
REMARK  121  A    between atoms: _292  and  _295
REMARK  122  A    between atoms: _295  and  _296
REMARK  123  A    between atoms: _301  and  _303
REMARK  124  A    between atoms: _303  and  _304
REMARK  125  A    between atoms: _303  and  _306
REMARK  126  A    between atoms: _306  and  _307
REMARK  127  A    between atoms: _307  and  _308
REMARK  128  A    between atoms: _308  and  _309
REMARK  129  A    between atoms: _318  and  _320
REMARK  130  A    between atoms: _320  and  _321
REMARK  131  A    between atoms: _320  and  _323
REMARK  132  A    between atoms: _323  and  _324
REMARK  133  A    between atoms: _327  and  _329
REMARK  134  A    between atoms: _329  and  _330
REMARK  135  A    between atoms: _329  and  _332
REMARK  136  A    between atoms: _332  and  _333
REMARK  137  A    between atoms: _336  and  _338
REMARK  138  A    between atoms: _338  and  _339
REMARK  139  A    between atoms: _338  and  _341
REMARK  140  A    between atoms: _341  and  _342
REMARK  141  A    between atoms: _345  and  _347
REMARK  142  A    between atoms: _347  and  _348
REMARK  143  A    between atoms: _347  and  _350
REMARK  144  A    between atoms: _350  and  _351
REMARK  145  A    between atoms: _354  and  _356
REMARK  146  A    between atoms: _356  and  _357
REMARK  147  A    between atoms: _359  and  _361
REMARK  148  A    between atoms: _361  and  _362
REMARK  149  A    between atoms: _365  and  _367
REMARK  150  A    between atoms: _367  and  _368
REMARK  151  A    between atoms: _367  and  _370
REMARK  152  A    between atoms: _370  and  _371
REMARK  153  A    between atoms: _374  and  _376
REMARK  154  A    between atoms: _376  and  _377
REMARK  155  A    between atoms: _376  and  _379
REMARK  156  A    between atoms: _379  and  _380
REMARK  157  A    between atoms: _383  and  _385
REMARK  158  A    between atoms: _385  and  _386
REMARK  159  A    between atoms: _385  and  _388
REMARK  160  A    between atoms: _388  and  _389
REMARK  161  A    between atoms: _392  and  _394
REMARK  162  A    between atoms: _394  and  _395
REMARK  163  A    between atoms: _394  and  _397
REMARK  164  A    between atoms: _400  and  _402
REMARK  165  A    between atoms: _402  and  _403
REMARK  166  A    between atoms: _402  and  _405
REMARK  167  A    between atoms: _405  and  _406
REMARK  168  A    between atoms: _406  and  _407
REMARK  169  A    between atoms: _407  and  _408
REMARK  170  A    between atoms: _408  and  _409
REMARK  171  A    between atoms: _413  and  _415
REMARK  172  A    between atoms: _415  and  _416
REMARK  173  A    between atoms: _415  and  _418
REMARK  174  A    between atoms: _418  and  _419
REMARK  175  A    between atoms: _419  and  _420
REMARK  176  A    between atoms: _422  and  _424
REMARK  177  A    between atoms: _424  and  _425
REMARK  178  A    between atoms: _424  and  _427
REMARK  179  A    between atoms: _427  and  _428
REMARK  180  A    between atoms: _431  and  _433
REMARK  181  A    between atoms: _433  and  _434
REMARK  182  A    between atoms: _436  and  _438
REMARK  183  A    between atoms: _438  and  _439
REMARK  184  A    between atoms: _441  and  _443
REMARK  185  A    between atoms: _443  and  _444
REMARK  186  A    between atoms: _443  and  _446
REMARK  187  A    between atoms: _446  and  _447
REMARK  188  A    between atoms: _450  and  _452
REMARK  189  A    between atoms: _452  and  _453
REMARK  190  A    between atoms: _455  and  _457
REMARK  191  A    between atoms: _457  and  _458
REMARK  192  A    between atoms: _460  and  _462
REMARK  193  A    between atoms: _462  and  _463
REMARK  194  A    between atoms: _462  and  _465
REMARK  195  A    between atoms: _465  and  _466
REMARK  196  A    between atoms: _472  and  _474
REMARK  197  A    between atoms: _474  and  _475
REMARK  198  A    between atoms: _474  and  _477
REMARK  199  A    between atoms: _477  and  _478
REMARK  200  A    between atoms: _481  and  _483
REMARK  201  A    between atoms: _483  and  _484
REMARK  202  A    between atoms: _483  and  _486
REMARK  203  A    between atoms: _489  and  _491
REMARK  204  A    between atoms: _491  and  _492
REMARK  205  A    between atoms: _491  and  _494
REMARK  206  A    between atoms: _494  and  _495
REMARK  207  A    between atoms: _499  and  _500
REMARK  208  A    between atoms: _505  and  _507
REMARK  209  A    between atoms: _507  and  _508
REMARK  210  A    between atoms: _507  and  _510
REMARK  211  A    between atoms: _510  and  _511
REMARK  212  A    between atoms: _515  and  _516
REMARK  213  A    between atoms: _521  and  _523
REMARK  214  A    between atoms: _523  and  _524
REMARK  215  A    between atoms: _523  and  _526
REMARK  216  A    between atoms: _529  and  _531
REMARK  217  A    between atoms: _531  and  _532
REMARK  218  A    between atoms: _531  and  _534
REMARK  219  A    between atoms: _534  and  _535
REMARK  220  A    between atoms: _540  and  _542
REMARK  221  A    between atoms: _542  and  _543
REMARK  222  A    between atoms: _542  and  _545
REMARK  223  A    between atoms: _545  and  _546
REMARK  224  A    between atoms: _549  and  _551
REMARK  225  A    between atoms: _551  and  _552
REMARK  226  A    between atoms: _551  and  _554
REMARK  227  A    between atoms: _554  and  _555
REMARK  228  A    between atoms: _558  and  _560
REMARK  229  A    between atoms: _560  and  _561
REMARK  230  A    between atoms: _563  and  _565
REMARK  231  A    between atoms: _565  and  _566
REMARK  232  A    between atoms: _565  and  _568
REMARK  233  A    between atoms: _568  and  _569
REMARK  234  A    between atoms: _569  and  _570
REMARK  235  A    between atoms: _570  and  _571
REMARK  236  A    between atoms: _580  and  _582
REMARK  237  A    between atoms: _582  and  _583
REMARK  238  A    between atoms: _582  and  _585
REMARK  239  A    between atoms: _585  and  _586
REMARK                            x       y       z     vdW  Elec       q    Type
REMARK                         _______ _______ _______ _____ _____    ______ ____
ROOT
ATOM      1  O   HOH     1      20.879  33.541  10.617  0.00  0.00    +0.000 OA
ENDROOT
TORSDOF 0
REMARK  Name = ../refined-set-2016/2aod/2aod_pocket.pdb
REMARK  239 active torsions:
REMARK  status: ('A' for Active; 'I' for Inactive)
REMARK    1  A    between atoms: _1  and  _3
REMARK    2  A    between atoms: _3  and  _4
REMARK    3  A    between atoms: _3  and  _6
REMARK    4  A    between atoms: _6  and  _7
REMARK    5  A    between atoms: _7  and  _8
REMARK    6  A    between atoms: _8  and  _9
REMARK    7  A    between atoms: _18  and  _20
REMARK    8  A    between atoms: _20  and  _21
REMARK    9  A    between atoms: _20  and  _23
REMARK   10  A    between atoms: _23  and  _24
REMARK   11  A    between atoms: _27  and  _29
REMARK   12  A    between atoms: _29  and  _30
REMARK   13  A    between atoms: _29  and  _32
REMARK   14  A    between atoms: _32  and  _33
REMARK   15  A    between atoms: _33  and  _34
REMARK   16  A    between atoms: _37  and  _39
REMARK   17  A    between atoms: _39  and  _40
REMARK   18  A    between atoms: _39  and  _42
REMARK   19  A    between atoms: _42  and  _43
REMARK   20  A    between atoms: _46  and  _48
REMARK   21  A    between atoms: _48  and  _49
REMARK   22  A    between atoms: _48  and  _51
REMARK   23  A    between atoms: _51  and  _52
REMARK   24  A    between atoms: _55  and  _57
REMARK   25  A    between atoms: _57  and  _58
REMARK   26  A    between atoms: _57  and  _60
REMARK   27  A    between atoms: _60  and  _61
REMARK   28  A    between atoms: _64  and  _66
REMARK   29  A    between atoms: _66  and  _67
REMARK   30  A    between atoms: _69  and  _71
REMARK   31  A    between atoms: _71  and  _72
REMARK   32  A    between atoms: _75  and  _77
REMARK   33  A    between atoms: _77  and  _78
REMARK   34  A    between atoms: _77  and  _80
REMARK   35  A    between atoms: _80  and  _81
REMARK   36  A    between atoms: _84  and  _86
REMARK   37  A    between atoms: _86  and  _87
REMARK   38  A    between atoms: _86  and  _89
REMARK   39  A    between atoms: _89  and  _90
REMARK   40  A    between atoms: _93  and  _95
REMARK   41  A    between atoms: _95  and  _96
REMARK   42  A    between atoms: _95  and  _98
REMARK   43  A    between atoms: _98  and  _99
REMARK   44  A    between atoms: _102  and  _104
REMARK   45  A    between atoms: _104  and  _105
REMARK   46  A    between atoms: _104  and  _107
REMARK   47  A    between atoms: _110  and  _112
REMARK   48  A    between atoms: _112  and  _113
REMARK   49  A    between atoms: _112  and  _115
REMARK   50  A    between atoms: _115  and  _116
REMARK   51  A    between atoms: _116  and  _117
REMARK   52  A    between atoms: _117  and  _118
REMARK   53  A    between atoms: _118  and  _119
REMARK   54  A    between atoms: _123  and  _125
REMARK   55  A    between atoms: _125  and  _126
REMARK   56  A    between atoms: _125  and  _128
REMARK   57  A    between atoms: _128  and  _129
REMARK   58  A    between atoms: _129  and  _130
REMARK   59  A    between atoms: _132  and  _134
REMARK   60  A    between atoms: _134  and  _135
REMARK   61  A    between atoms: _134  and  _137
REMARK   62  A    between atoms: _137  and  _138
REMARK   63  A    between atoms: _141  and  _143
REMARK   64  A    between atoms: _143  and  _144
REMARK   65  A    between atoms: _146  and  _148
REMARK   66  A    between atoms: _148  and  _149
REMARK   67  A    between atoms: _151  and  _153
REMARK   68  A    between atoms: _153  and  _154
REMARK   69  A    between atoms: _153  and  _156
REMARK   70  A    between atoms: _156  and  _157
REMARK   71  A    between atoms: _160  and  _162
REMARK   72  A    between atoms: _162  and  _163
REMARK   73  A    between atoms: _165  and  _167
REMARK   74  A    between atoms: _167  and  _168
REMARK   75  A    between atoms: _170  and  _172
REMARK   76  A    between atoms: _172  and  _173
REMARK   77  A    between atoms: _172  and  _175
REMARK   78  A    between atoms: _175  and  _176
REMARK   79  A    between atoms: _182  and  _184
REMARK   80  A    between atoms: _184  and  _185
REMARK   81  A    between atoms: _184  and  _187
REMARK   82  A    between atoms: _187  and  _188
REMARK   83  A    between atoms: _191  and  _193
REMARK   84  A    between atoms: _193  and  _194
REMARK   85  A    between atoms: _193  and  _196
REMARK   86  A    between atoms: _199  and  _201
REMARK   87  A    between atoms: _201  and  _202
REMARK   88  A    between atoms: _201  and  _204
REMARK   89  A    between atoms: _204  and  _205
REMARK   90  A    between atoms: _209  and  _210
REMARK   91  A    between atoms: _215  and  _217
REMARK   92  A    between atoms: _217  and  _218
REMARK   93  A    between atoms: _217  and  _220
REMARK   94  A    between atoms: _220  and  _221
REMARK   95  A    between atoms: _225  and  _226
REMARK   96  A    between atoms: _231  and  _233
REMARK   97  A    between atoms: _233  and  _234
REMARK   98  A    between atoms: _233  and  _236
REMARK   99  A    between atoms: _239  and  _241
REMARK  100  A    between atoms: _241  and  _242
REMARK  101  A    between atoms: _241  and  _244
REMARK  102  A    between atoms: _244  and  _245
REMARK  103  A    between atoms: _250  and  _252
REMARK  104  A    between atoms: _252  and  _253
REMARK  105  A    between atoms: _252  and  _255
REMARK  106  A    between atoms: _255  and  _256
REMARK  107  A    between atoms: _259  and  _261
REMARK  108  A    between atoms: _261  and  _262
REMARK  109  A    between atoms: _261  and  _264
REMARK  110  A    between atoms: _264  and  _265
REMARK  111  A    between atoms: _268  and  _270
REMARK  112  A    between atoms: _270  and  _271
REMARK  113  A    between atoms: _273  and  _275
REMARK  114  A    between atoms: _275  and  _276
REMARK  115  A    between atoms: _275  and  _278
REMARK  116  A    between atoms: _278  and  _279
REMARK  117  A    between atoms: _279  and  _280
REMARK  118  A    between atoms: _280  and  _281
REMARK  119  A    between atoms: _290  and  _292
REMARK  120  A    between atoms: _292  and  _293
REMARK  121  A    between atoms: _292  and  _295
REMARK  122  A    between atoms: _295  and  _296
REMARK  123  A    between atoms: _301  and  _303
REMARK  124  A    between atoms: _303  and  _304
REMARK  125  A    between atoms: _303  and  _306
REMARK  126  A    between atoms: _306  and  _307
REMARK  127  A    between atoms: _307  and  _308
REMARK  128  A    between atoms: _308  and  _309
REMARK  129  A    between atoms: _318  and  _320
REMARK  130  A    between atoms: _320  and  _321
REMARK  131  A    between atoms: _320  and  _323
REMARK  132  A    between atoms: _323  and  _324
REMARK  133  A    between atoms: _327  and  _329
REMARK  134  A    between atoms: _329  and  _330
REMARK  135  A    between atoms: _329  and  _332
REMARK  136  A    between atoms: _332  and  _333
REMARK  137  A    between atoms: _336  and  _338
REMARK  138  A    between atoms: _338  and  _339
REMARK  139  A    between atoms: _338  and  _341
REMARK  140  A    between atoms: _341  and  _342
REMARK  141  A    between atoms: _345  and  _347
REMARK  142  A    between atoms: _347  and  _348
REMARK  143  A    between atoms: _347  and  _350
REMARK  144  A    between atoms: _350  and  _351
REMARK  145  A    between atoms: _354  and  _356
REMARK  146  A    between atoms: _356  and  _357
REMARK  147  A    between atoms: _359  and  _361
REMARK  148  A    between atoms: _361  and  _362
REMARK  149  A    between atoms: _365  and  _367
REMARK  150  A    between atoms: _367  and  _368
REMARK  151  A    between atoms: _367  and  _370
REMARK  152  A    between atoms: _370  and  _371
REMARK  153  A    between atoms: _374  and  _376
REMARK  154  A    between atoms: _376  and  _377
REMARK  155  A    between atoms: _376  and  _379
REMARK  156  A    between atoms: _379  and  _380
REMARK  157  A    between atoms: _383  and  _385
REMARK  158  A    between atoms: _385  and  _386
REMARK  159  A    between atoms: _385  and  _388
REMARK  160  A    between atoms: _388  and  _389
REMARK  161  A    between atoms: _392  and  _394
REMARK  162  A    between atoms: _394  and  _395
REMARK  163  A    between atoms: _394  and  _397
REMARK  164  A    between atoms: _400  and  _402
REMARK  165  A    between atoms: _402  and  _403
REMARK  166  A    between atoms: _402  and  _405
REMARK  167  A    between atoms: _405  and  _406
REMARK  168  A    between atoms: _406  and  _407
REMARK  169  A    between atoms: _407  and  _408
REMARK  170  A    between atoms: _408  and  _409
REMARK  171  A    between atoms: _413  and  _415
REMARK  172  A    between atoms: _415  and  _416
REMARK  173  A    between atoms: _415  and  _418
REMARK  174  A    between atoms: _418  and  _419
REMARK  175  A    between atoms: _419  and  _420
REMARK  176  A    between atoms: _422  and  _424
REMARK  177  A    between atoms: _424  and  _425
REMARK  178  A    between atoms: _424  and  _427
REMARK  179  A    between atoms: _427  and  _428
REMARK  180  A    between atoms: _431  and  _433
REMARK  181  A    between atoms: _433  and  _434
REMARK  182  A    between atoms: _436  and  _438
REMARK  183  A    between atoms: _438  and  _439
REMARK  184  A    between atoms: _441  and  _443
REMARK  185  A    between atoms: _443  and  _444
REMARK  186  A    between atoms: _443  and  _446
REMARK  187  A    between atoms: _446  and  _447
REMARK  188  A    between atoms: _450  and  _452
REMARK  189  A    between atoms: _452  and  _453
REMARK  190  A    between atoms: _455  and  _457
REMARK  191  A    between atoms: _457  and  _458
REMARK  192  A    between atoms: _460  and  _462
REMARK  193  A    between atoms: _462  and  _463
REMARK  194  A    between atoms: _462  and  _465
REMARK  195  A    between atoms: _465  and  _466
REMARK  196  A    between atoms: _472  and  _474
REMARK  197  A    between atoms: _474  and  _475
REMARK  198  A    between atoms: _474  and  _477
REMARK  199  A    between atoms: _477  and  _478
REMARK  200  A    between atoms: _481  and  _483
REMARK  201  A    between atoms: _483  and  _484
REMARK  202  A    between atoms: _483  and  _486
REMARK  203  A    between atoms: _489  and  _491
REMARK  204  A    between atoms: _491  and  _492
REMARK  205  A    between atoms: _491  and  _494
REMARK  206  A    between atoms: _494  and  _495
REMARK  207  A    between atoms: _499  and  _500
REMARK  208  A    between atoms: _505  and  _507
REMARK  209  A    between atoms: _507  and  _508
REMARK  210  A    between atoms: _507  and  _510
REMARK  211  A    between atoms: _510  and  _511
REMARK  212  A    between atoms: _515  and  _516
REMARK  213  A    between atoms: _521  and  _523
REMARK  214  A    between atoms: _523  and  _524
REMARK  215  A    between atoms: _523  and  _526
REMARK  216  A    between atoms: _529  and  _531
REMARK  217  A    between atoms: _531  and  _532
REMARK  218  A    between atoms: _531  and  _534
REMARK  219  A    between atoms: _534  and  _535
REMARK  220  A    between atoms: _540  and  _542
REMARK  221  A    between atoms: _542  and  _543
REMARK  222  A    between atoms: _542  and  _545
REMARK  223  A    between atoms: _545  and  _546
REMARK  224  A    between atoms: _549  and  _551
REMARK  225  A    between atoms: _551  and  _552
REMARK  226  A    between atoms: _551  and  _554
REMARK  227  A    between atoms: _554  and  _555
REMARK  228  A    between atoms: _558  and  _560
REMARK  229  A    between atoms: _560  and  _561
REMARK  230  A    between atoms: _563  and  _565
REMARK  231  A    between atoms: _565  and  _566
REMARK  232  A    between atoms: _565  and  _568
REMARK  233  A    between atoms: _568  and  _569
REMARK  234  A    between atoms: _569  and  _570
REMARK  235  A    between atoms: _570  and  _571
REMARK  236  A    between atoms: _580  and  _582
REMARK  237  A    between atoms: _582  and  _583
REMARK  238  A    between atoms: _582  and  _585
REMARK  239  A    between atoms: _585  and  _586
REMARK                            x       y       z     vdW  Elec       q    Type
REMARK                         _______ _______ _______ _____ _____    ______ ____
ROOT
ATOM      1  O   HOH     1       9.023  24.362   7.441  0.00  0.00    +0.000 OA
ENDROOT
TORSDOF 0
REMARK  Name = ../refined-set-2016/2aod/2aod_pocket.pdb
REMARK  239 active torsions:
REMARK  status: ('A' for Active; 'I' for Inactive)
REMARK    1  A    between atoms: _1  and  _3
REMARK    2  A    between atoms: _3  and  _4
REMARK    3  A    between atoms: _3  and  _6
REMARK    4  A    between atoms: _6  and  _7
REMARK    5  A    between atoms: _7  and  _8
REMARK    6  A    between atoms: _8  and  _9
REMARK    7  A    between atoms: _18  and  _20
REMARK    8  A    between atoms: _20  and  _21
REMARK    9  A    between atoms: _20  and  _23
REMARK   10  A    between atoms: _23  and  _24
REMARK   11  A    between atoms: _27  and  _29
REMARK   12  A    between atoms: _29  and  _30
REMARK   13  A    between atoms: _29  and  _32
REMARK   14  A    between atoms: _32  and  _33
REMARK   15  A    between atoms: _33  and  _34
REMARK   16  A    between atoms: _37  and  _39
REMARK   17  A    between atoms: _39  and  _40
REMARK   18  A    between atoms: _39  and  _42
REMARK   19  A    between atoms: _42  and  _43
REMARK   20  A    between atoms: _46  and  _48
REMARK   21  A    between atoms: _48  and  _49
REMARK   22  A    between atoms: _48  and  _51
REMARK   23  A    between atoms: _51  and  _52
REMARK   24  A    between atoms: _55  and  _57
REMARK   25  A    between atoms: _57  and  _58
REMARK   26  A    between atoms: _57  and  _60
REMARK   27  A    between atoms: _60  and  _61
REMARK   28  A    between atoms: _64  and  _66
REMARK   29  A    between atoms: _66  and  _67
REMARK   30  A    between atoms: _69  and  _71
REMARK   31  A    between atoms: _71  and  _72
REMARK   32  A    between atoms: _75  and  _77
REMARK   33  A    between atoms: _77  and  _78
REMARK   34  A    between atoms: _77  and  _80
REMARK   35  A    between atoms: _80  and  _81
REMARK   36  A    between atoms: _84  and  _86
REMARK   37  A    between atoms: _86  and  _87
REMARK   38  A    between atoms: _86  and  _89
REMARK   39  A    between atoms: _89  and  _90
REMARK   40  A    between atoms: _93  and  _95
REMARK   41  A    between atoms: _95  and  _96
REMARK   42  A    between atoms: _95  and  _98
REMARK   43  A    between atoms: _98  and  _99
REMARK   44  A    between atoms: _102  and  _104
REMARK   45  A    between atoms: _104  and  _105
REMARK   46  A    between atoms: _104  and  _107
REMARK   47  A    between atoms: _110  and  _112
REMARK   48  A    between atoms: _112  and  _113
REMARK   49  A    between atoms: _112  and  _115
REMARK   50  A    between atoms: _115  and  _116
REMARK   51  A    between atoms: _116  and  _117
REMARK   52  A    between atoms: _117  and  _118
REMARK   53  A    between atoms: _118  and  _119
REMARK   54  A    between atoms: _123  and  _125
REMARK   55  A    between atoms: _125  and  _126
REMARK   56  A    between atoms: _125  and  _128
REMARK   57  A    between atoms: _128  and  _129
REMARK   58  A    between atoms: _129  and  _130
REMARK   59  A    between atoms: _132  and  _134
REMARK   60  A    between atoms: _134  and  _135
REMARK   61  A    between atoms: _134  and  _137
REMARK   62  A    between atoms: _137  and  _138
REMARK   63  A    between atoms: _141  and  _143
REMARK   64  A    between atoms: _143  and  _144
REMARK   65  A    between atoms: _146  and  _148
REMARK   66  A    between atoms: _148  and  _149
REMARK   67  A    between atoms: _151  and  _153
REMARK   68  A    between atoms: _153  and  _154
REMARK   69  A    between atoms: _153  and  _156
REMARK   70  A    between atoms: _156  and  _157
REMARK   71  A    between atoms: _160  and  _162
REMARK   72  A    between atoms: _162  and  _163
REMARK   73  A    between atoms: _165  and  _167
REMARK   74  A    between atoms: _167  and  _168
REMARK   75  A    between atoms: _170  and  _172
REMARK   76  A    between atoms: _172  and  _173
REMARK   77  A    between atoms: _172  and  _175
REMARK   78  A    between atoms: _175  and  _176
REMARK   79  A    between atoms: _182  and  _184
REMARK   80  A    between atoms: _184  and  _185
REMARK   81  A    between atoms: _184  and  _187
REMARK   82  A    between atoms: _187  and  _188
REMARK   83  A    between atoms: _191  and  _193
REMARK   84  A    between atoms: _193  and  _194
REMARK   85  A    between atoms: _193  and  _196
REMARK   86  A    between atoms: _199  and  _201
REMARK   87  A    between atoms: _201  and  _202
REMARK   88  A    between atoms: _201  and  _204
REMARK   89  A    between atoms: _204  and  _205
REMARK   90  A    between atoms: _209  and  _210
REMARK   91  A    between atoms: _215  and  _217
REMARK   92  A    between atoms: _217  and  _218
REMARK   93  A    between atoms: _217  and  _220
REMARK   94  A    between atoms: _220  and  _221
REMARK   95  A    between atoms: _225  and  _226
REMARK   96  A    between atoms: _231  and  _233
REMARK   97  A    between atoms: _233  and  _234
REMARK   98  A    between atoms: _233  and  _236
REMARK   99  A    between atoms: _239  and  _241
REMARK  100  A    between atoms: _241  and  _242
REMARK  101  A    between atoms: _241  and  _244
REMARK  102  A    between atoms: _244  and  _245
REMARK  103  A    between atoms: _250  and  _252
REMARK  104  A    between atoms: _252  and  _253
REMARK  105  A    between atoms: _252  and  _255
REMARK  106  A    between atoms: _255  and  _256
REMARK  107  A    between atoms: _259  and  _261
REMARK  108  A    between atoms: _261  and  _262
REMARK  109  A    between atoms: _261  and  _264
REMARK  110  A    between atoms: _264  and  _265
REMARK  111  A    between atoms: _268  and  _270
REMARK  112  A    between atoms: _270  and  _271
REMARK  113  A    between atoms: _273  and  _275
REMARK  114  A    between atoms: _275  and  _276
REMARK  115  A    between atoms: _275  and  _278
REMARK  116  A    between atoms: _278  and  _279
REMARK  117  A    between atoms: _279  and  _280
REMARK  118  A    between atoms: _280  and  _281
REMARK  119  A    between atoms: _290  and  _292
REMARK  120  A    between atoms: _292  and  _293
REMARK  121  A    between atoms: _292  and  _295
REMARK  122  A    between atoms: _295  and  _296
REMARK  123  A    between atoms: _301  and  _303
REMARK  124  A    between atoms: _303  and  _304
REMARK  125  A    between atoms: _303  and  _306
REMARK  126  A    between atoms: _306  and  _307
REMARK  127  A    between atoms: _307  and  _308
REMARK  128  A    between atoms: _308  and  _309
REMARK  129  A    between atoms: _318  and  _320
REMARK  130  A    between atoms: _320  and  _321
REMARK  131  A    between atoms: _320  and  _323
REMARK  132  A    between atoms: _323  and  _324
REMARK  133  A    between atoms: _327  and  _329
REMARK  134  A    between atoms: _329  and  _330
REMARK  135  A    between atoms: _329  and  _332
REMARK  136  A    between atoms: _332  and  _333
REMARK  137  A    between atoms: _336  and  _338
REMARK  138  A    between atoms: _338  and  _339
REMARK  139  A    between atoms: _338  and  _341
REMARK  140  A    between atoms: _341  and  _342
REMARK  141  A    between atoms: _345  and  _347
REMARK  142  A    between atoms: _347  and  _348
REMARK  143  A    between atoms: _347  and  _350
REMARK  144  A    between atoms: _350  and  _351
REMARK  145  A    between atoms: _354  and  _356
REMARK  146  A    between atoms: _356  and  _357
REMARK  147  A    between atoms: _359  and  _361
REMARK  148  A    between atoms: _361  and  _362
REMARK  149  A    between atoms: _365  and  _367
REMARK  150  A    between atoms: _367  and  _368
REMARK  151  A    between atoms: _367  and  _370
REMARK  152  A    between atoms: _370  and  _371
REMARK  153  A    between atoms: _374  and  _376
REMARK  154  A    between atoms: _376  and  _377
REMARK  155  A    between atoms: _376  and  _379
REMARK  156  A    between atoms: _379  and  _380
REMARK  157  A    between atoms: _383  and  _385
REMARK  158  A    between atoms: _385  and  _386
REMARK  159  A    between atoms: _385  and  _388
REMARK  160  A    between atoms: _388  and  _389
REMARK  161  A    between atoms: _392  and  _394
REMARK  162  A    between atoms: _394  and  _395
REMARK  163  A    between atoms: _394  and  _397
REMARK  164  A    between atoms: _400  and  _402
REMARK  165  A    between atoms: _402  and  _403
REMARK  166  A    between atoms: _402  and  _405
REMARK  167  A    between atoms: _405  and  _406
REMARK  168  A    between atoms: _406  and  _407
REMARK  169  A    between atoms: _407  and  _408
REMARK  170  A    between atoms: _408  and  _409
REMARK  171  A    between atoms: _413  and  _415
REMARK  172  A    between atoms: _415  and  _416
REMARK  173  A    between atoms: _415  and  _418
REMARK  174  A    between atoms: _418  and  _419
REMARK  175  A    between atoms: _419  and  _420
REMARK  176  A    between atoms: _422  and  _424
REMARK  177  A    between atoms: _424  and  _425
REMARK  178  A    between atoms: _424  and  _427
REMARK  179  A    between atoms: _427  and  _428
REMARK  180  A    between atoms: _431  and  _433
REMARK  181  A    between atoms: _433  and  _434
REMARK  182  A    between atoms: _436  and  _438
REMARK  183  A    between atoms: _438  and  _439
REMARK  184  A    between atoms: _441  and  _443
REMARK  185  A    between atoms: _443  and  _444
REMARK  186  A    between atoms: _443  and  _446
REMARK  187  A    between atoms: _446  and  _447
REMARK  188  A    between atoms: _450  and  _452
REMARK  189  A    between atoms: _452  and  _453
REMARK  190  A    between atoms: _455  and  _457
REMARK  191  A    between atoms: _457  and  _458
REMARK  192  A    between atoms: _460  and  _462
REMARK  193  A    between atoms: _462  and  _463
REMARK  194  A    between atoms: _462  and  _465
REMARK  195  A    between atoms: _465  and  _466
REMARK  196  A    between atoms: _472  and  _474
REMARK  197  A    between atoms: _474  and  _475
REMARK  198  A    between atoms: _474  and  _477
REMARK  199  A    between atoms: _477  and  _478
REMARK  200  A    between atoms: _481  and  _483
REMARK  201  A    between atoms: _483  and  _484
REMARK  202  A    between atoms: _483  and  _486
REMARK  203  A    between atoms: _489  and  _491
REMARK  204  A    between atoms: _491  and  _492
REMARK  205  A    between atoms: _491  and  _494
REMARK  206  A    between atoms: _494  and  _495
REMARK  207  A    between atoms: _499  and  _500
REMARK  208  A    between atoms: _505  and  _507
REMARK  209  A    between atoms: _507  and  _508
REMARK  210  A    between atoms: _507  and  _510
REMARK  211  A    between atoms: _510  and  _511
REMARK  212  A    between atoms: _515  and  _516
REMARK  213  A    between atoms: _521  and  _523
REMARK  214  A    between atoms: _523  and  _524
REMARK  215  A    between atoms: _523  and  _526
REMARK  216  A    between atoms: _529  and  _531
REMARK  217  A    between atoms: _531  and  _532
REMARK  218  A    between atoms: _531  and  _534
REMARK  219  A    between atoms: _534  and  _535
REMARK  220  A    between atoms: _540  and  _542
REMARK  221  A    between atoms: _542  and  _543
REMARK  222  A    between atoms: _542  and  _545
REMARK  223  A    between atoms: _545  and  _546
REMARK  224  A    between atoms: _549  and  _551
REMARK  225  A    between atoms: _551  and  _552
REMARK  226  A    between atoms: _551  and  _554
REMARK  227  A    between atoms: _554  and  _555
REMARK  228  A    between atoms: _558  and  _560
REMARK  229  A    between atoms: _560  and  _561
REMARK  230  A    between atoms: _563  and  _565
REMARK  231  A    between atoms: _565  and  _566
REMARK  232  A    between atoms: _565  and  _568
REMARK  233  A    between atoms: _568  and  _569
REMARK  234  A    between atoms: _569  and  _570
REMARK  235  A    between atoms: _570  and  _571
REMARK  236  A    between atoms: _580  and  _582
REMARK  237  A    between atoms: _582  and  _583
REMARK  238  A    between atoms: _582  and  _585
REMARK  239  A    between atoms: _585  and  _586
REMARK                            x       y       z     vdW  Elec       q    Type
REMARK                         _______ _______ _______ _____ _____    ______ ____
ROOT
ATOM      1  O   HOH     1       1.733  21.585  16.352  0.00  0.00    +0.000 OA
ENDROOT
TORSDOF 0
REMARK  Name = ../refined-set-2016/2aod/2aod_pocket.pdb
REMARK  239 active torsions:
REMARK  status: ('A' for Active; 'I' for Inactive)
REMARK    1  A    between atoms: _1  and  _3
REMARK    2  A    between atoms: _3  and  _4
REMARK    3  A    between atoms: _3  and  _6
REMARK    4  A    between atoms: _6  and  _7
REMARK    5  A    between atoms: _7  and  _8
REMARK    6  A    between atoms: _8  and  _9
REMARK    7  A    between atoms: _18  and  _20
REMARK    8  A    between atoms: _20  and  _21
REMARK    9  A    between atoms: _20  and  _23
REMARK   10  A    between atoms: _23  and  _24
REMARK   11  A    between atoms: _27  and  _29
REMARK   12  A    between atoms: _29  and  _30
REMARK   13  A    between atoms: _29  and  _32
REMARK   14  A    between atoms: _32  and  _33
REMARK   15  A    between atoms: _33  and  _34
REMARK   16  A    between atoms: _37  and  _39
REMARK   17  A    between atoms: _39  and  _40
REMARK   18  A    between atoms: _39  and  _42
REMARK   19  A    between atoms: _42  and  _43
REMARK   20  A    between atoms: _46  and  _48
REMARK   21  A    between atoms: _48  and  _49
REMARK   22  A    between atoms: _48  and  _51
REMARK   23  A    between atoms: _51  and  _52
REMARK   24  A    between atoms: _55  and  _57
REMARK   25  A    between atoms: _57  and  _58
REMARK   26  A    between atoms: _57  and  _60
REMARK   27  A    between atoms: _60  and  _61
REMARK   28  A    between atoms: _64  and  _66
REMARK   29  A    between atoms: _66  and  _67
REMARK   30  A    between atoms: _69  and  _71
REMARK   31  A    between atoms: _71  and  _72
REMARK   32  A    between atoms: _75  and  _77
REMARK   33  A    between atoms: _77  and  _78
REMARK   34  A    between atoms: _77  and  _80
REMARK   35  A    between atoms: _80  and  _81
REMARK   36  A    between atoms: _84  and  _86
REMARK   37  A    between atoms: _86  and  _87
REMARK   38  A    between atoms: _86  and  _89
REMARK   39  A    between atoms: _89  and  _90
REMARK   40  A    between atoms: _93  and  _95
REMARK   41  A    between atoms: _95  and  _96
REMARK   42  A    between atoms: _95  and  _98
REMARK   43  A    between atoms: _98  and  _99
REMARK   44  A    between atoms: _102  and  _104
REMARK   45  A    between atoms: _104  and  _105
REMARK   46  A    between atoms: _104  and  _107
REMARK   47  A    between atoms: _110  and  _112
REMARK   48  A    between atoms: _112  and  _113
REMARK   49  A    between atoms: _112  and  _115
REMARK   50  A    between atoms: _115  and  _116
REMARK   51  A    between atoms: _116  and  _117
REMARK   52  A    between atoms: _117  and  _118
REMARK   53  A    between atoms: _118  and  _119
REMARK   54  A    between atoms: _123  and  _125
REMARK   55  A    between atoms: _125  and  _126
REMARK   56  A    between atoms: _125  and  _128
REMARK   57  A    between atoms: _128  and  _129
REMARK   58  A    between atoms: _129  and  _130
REMARK   59  A    between atoms: _132  and  _134
REMARK   60  A    between atoms: _134  and  _135
REMARK   61  A    between atoms: _134  and  _137
REMARK   62  A    between atoms: _137  and  _138
REMARK   63  A    between atoms: _141  and  _143
REMARK   64  A    between atoms: _143  and  _144
REMARK   65  A    between atoms: _146  and  _148
REMARK   66  A    between atoms: _148  and  _149
REMARK   67  A    between atoms: _151  and  _153
REMARK   68  A    between atoms: _153  and  _154
REMARK   69  A    between atoms: _153  and  _156
REMARK   70  A    between atoms: _156  and  _157
REMARK   71  A    between atoms: _160  and  _162
REMARK   72  A    between atoms: _162  and  _163
REMARK   73  A    between atoms: _165  and  _167
REMARK   74  A    between atoms: _167  and  _168
REMARK   75  A    between atoms: _170  and  _172
REMARK   76  A    between atoms: _172  and  _173
REMARK   77  A    between atoms: _172  and  _175
REMARK   78  A    between atoms: _175  and  _176
REMARK   79  A    between atoms: _182  and  _184
REMARK   80  A    between atoms: _184  and  _185
REMARK   81  A    between atoms: _184  and  _187
REMARK   82  A    between atoms: _187  and  _188
REMARK   83  A    between atoms: _191  and  _193
REMARK   84  A    between atoms: _193  and  _194
REMARK   85  A    between atoms: _193  and  _196
REMARK   86  A    between atoms: _199  and  _201
REMARK   87  A    between atoms: _201  and  _202
REMARK   88  A    between atoms: _201  and  _204
REMARK   89  A    between atoms: _204  and  _205
REMARK   90  A    between atoms: _209  and  _210
REMARK   91  A    between atoms: _215  and  _217
REMARK   92  A    between atoms: _217  and  _218
REMARK   93  A    between atoms: _217  and  _220
REMARK   94  A    between atoms: _220  and  _221
REMARK   95  A    between atoms: _225  and  _226
REMARK   96  A    between atoms: _231  and  _233
REMARK   97  A    between atoms: _233  and  _234
REMARK   98  A    between atoms: _233  and  _236
REMARK   99  A    between atoms: _239  and  _241
REMARK  100  A    between atoms: _241  and  _242
REMARK  101  A    between atoms: _241  and  _244
REMARK  102  A    between atoms: _244  and  _245
REMARK  103  A    between atoms: _250  and  _252
REMARK  104  A    between atoms: _252  and  _253
REMARK  105  A    between atoms: _252  and  _255
REMARK  106  A    between atoms: _255  and  _256
REMARK  107  A    between atoms: _259  and  _261
REMARK  108  A    between atoms: _261  and  _262
REMARK  109  A    between atoms: _261  and  _264
REMARK  110  A    between atoms: _264  and  _265
REMARK  111  A    between atoms: _268  and  _270
REMARK  112  A    between atoms: _270  and  _271
REMARK  113  A    between atoms: _273  and  _275
REMARK  114  A    between atoms: _275  and  _276
REMARK  115  A    between atoms: _275  and  _278
REMARK  116  A    between atoms: _278  and  _279
REMARK  117  A    between atoms: _279  and  _280
REMARK  118  A    between atoms: _280  and  _281
REMARK  119  A    between atoms: _290  and  _292
REMARK  120  A    between atoms: _292  and  _293
REMARK  121  A    between atoms: _292  and  _295
REMARK  122  A    between atoms: _295  and  _296
REMARK  123  A    between atoms: _301  and  _303
REMARK  124  A    between atoms: _303  and  _304
REMARK  125  A    between atoms: _303  and  _306
REMARK  126  A    between atoms: _306  and  _307
REMARK  127  A    between atoms: _307  and  _308
REMARK  128  A    between atoms: _308  and  _309
REMARK  129  A    between atoms: _318  and  _320
REMARK  130  A    between atoms: _320  and  _321
REMARK  131  A    between atoms: _320  and  _323
REMARK  132  A    between atoms: _323  and  _324
REMARK  133  A    between atoms: _327  and  _329
REMARK  134  A    between atoms: _329  and  _330
REMARK  135  A    between atoms: _329  and  _332
REMARK  136  A    between atoms: _332  and  _333
REMARK  137  A    between atoms: _336  and  _338
REMARK  138  A    between atoms: _338  and  _339
REMARK  139  A    between atoms: _338  and  _341
REMARK  140  A    between atoms: _341  and  _342
REMARK  141  A    between atoms: _345  and  _347
REMARK  142  A    between atoms: _347  and  _348
REMARK  143  A    between atoms: _347  and  _350
REMARK  144  A    between atoms: _350  and  _351
REMARK  145  A    between atoms: _354  and  _356
REMARK  146  A    between atoms: _356  and  _357
REMARK  147  A    between atoms: _359  and  _361
REMARK  148  A    between atoms: _361  and  _362
REMARK  149  A    between atoms: _365  and  _367
REMARK  150  A    between atoms: _367  and  _368
REMARK  151  A    between atoms: _367  and  _370
REMARK  152  A    between atoms: _370  and  _371
REMARK  153  A    between atoms: _374  and  _376
REMARK  154  A    between atoms: _376  and  _377
REMARK  155  A    between atoms: _376  and  _379
REMARK  156  A    between atoms: _379  and  _380
REMARK  157  A    between atoms: _383  and  _385
REMARK  158  A    between atoms: _385  and  _386
REMARK  159  A    between atoms: _385  and  _388
REMARK  160  A    between atoms: _388  and  _389
REMARK  161  A    between atoms: _392  and  _394
REMARK  162  A    between atoms: _394  and  _395
REMARK  163  A    between atoms: _394  and  _397
REMARK  164  A    between atoms: _400  and  _402
REMARK  165  A    between atoms: _402  and  _403
REMARK  166  A    between atoms: _402  and  _405
REMARK  167  A    between atoms: _405  and  _406
REMARK  168  A    between atoms: _406  and  _407
REMARK  169  A    between atoms: _407  and  _408
REMARK  170  A    between atoms: _408  and  _409
REMARK  171  A    between atoms: _413  and  _415
REMARK  172  A    between atoms: _415  and  _416
REMARK  173  A    between atoms: _415  and  _418
REMARK  174  A    between atoms: _418  and  _419
REMARK  175  A    between atoms: _419  and  _420
REMARK  176  A    between atoms: _422  and  _424
REMARK  177  A    between atoms: _424  and  _425
REMARK  178  A    between atoms: _424  and  _427
REMARK  179  A    between atoms: _427  and  _428
REMARK  180  A    between atoms: _431  and  _433
REMARK  181  A    between atoms: _433  and  _434
REMARK  182  A    between atoms: _436  and  _438
REMARK  183  A    between atoms: _438  and  _439
REMARK  184  A    between atoms: _441  and  _443
REMARK  185  A    between atoms: _443  and  _444
REMARK  186  A    between atoms: _443  and  _446
REMARK  187  A    between atoms: _446  and  _447
REMARK  188  A    between atoms: _450  and  _452
REMARK  189  A    between atoms: _452  and  _453
REMARK  190  A    between atoms: _455  and  _457
REMARK  191  A    between atoms: _457  and  _458
REMARK  192  A    between atoms: _460  and  _462
REMARK  193  A    between atoms: _462  and  _463
REMARK  194  A    between atoms: _462  and  _465
REMARK  195  A    between atoms: _465  and  _466
REMARK  196  A    between atoms: _472  and  _474
REMARK  197  A    between atoms: _474  and  _475
REMARK  198  A    between atoms: _474  and  _477
REMARK  199  A    between atoms: _477  and  _478
REMARK  200  A    between atoms: _481  and  _483
REMARK  201  A    between atoms: _483  and  _484
REMARK  202  A    between atoms: _483  and  _486
REMARK  203  A    between atoms: _489  and  _491
REMARK  204  A    between atoms: _491  and  _492
REMARK  205  A    between atoms: _491  and  _494
REMARK  206  A    between atoms: _494  and  _495
REMARK  207  A    between atoms: _499  and  _500
REMARK  208  A    between atoms: _505  and  _507
REMARK  209  A    between atoms: _507  and  _508
REMARK  210  A    between atoms: _507  and  _510
REMARK  211  A    between atoms: _510  and  _511
REMARK  212  A    between atoms: _515  and  _516
REMARK  213  A    between atoms: _521  and  _523
REMARK  214  A    between atoms: _523  and  _524
REMARK  215  A    between atoms: _523  and  _526
REMARK  216  A    between atoms: _529  and  _531
REMARK  217  A    between atoms: _531  and  _532
REMARK  218  A    between atoms: _531  and  _534
REMARK  219  A    between atoms: _534  and  _535
REMARK  220  A    between atoms: _540  and  _542
REMARK  221  A    between atoms: _542  and  _543
REMARK  222  A    between atoms: _542  and  _545
REMARK  223  A    between atoms: _545  and  _546
REMARK  224  A    between atoms: _549  and  _551
REMARK  225  A    between atoms: _551  and  _552
REMARK  226  A    between atoms: _551  and  _554
REMARK  227  A    between atoms: _554  and  _555
REMARK  228  A    between atoms: _558  and  _560
REMARK  229  A    between atoms: _560  and  _561
REMARK  230  A    between atoms: _563  and  _565
REMARK  231  A    between atoms: _565  and  _566
REMARK  232  A    between atoms: _565  and  _568
REMARK  233  A    between atoms: _568  and  _569
REMARK  234  A    between atoms: _569  and  _570
REMARK  235  A    between atoms: _570  and  _571
REMARK  236  A    between atoms: _580  and  _582
REMARK  237  A    between atoms: _582  and  _583
REMARK  238  A    between atoms: _582  and  _585
REMARK  239  A    between atoms: _585  and  _586
REMARK                            x       y       z     vdW  Elec       q    Type
REMARK                         _______ _______ _______ _____ _____    ______ ____
ROOT
ATOM      1  O   HOH     1       4.587  21.323  11.790  0.00  0.00    +0.000 OA
ENDROOT
TORSDOF 0
REMARK  Name = ../refined-set-2016/2aod/2aod_pocket.pdb
REMARK  239 active torsions:
REMARK  status: ('A' for Active; 'I' for Inactive)
REMARK    1  A    between atoms: _1  and  _3
REMARK    2  A    between atoms: _3  and  _4
REMARK    3  A    between atoms: _3  and  _6
REMARK    4  A    between atoms: _6  and  _7
REMARK    5  A    between atoms: _7  and  _8
REMARK    6  A    between atoms: _8  and  _9
REMARK    7  A    between atoms: _18  and  _20
REMARK    8  A    between atoms: _20  and  _21
REMARK    9  A    between atoms: _20  and  _23
REMARK   10  A    between atoms: _23  and  _24
REMARK   11  A    between atoms: _27  and  _29
REMARK   12  A    between atoms: _29  and  _30
REMARK   13  A    between atoms: _29  and  _32
REMARK   14  A    between atoms: _32  and  _33
REMARK   15  A    between atoms: _33  and  _34
REMARK   16  A    between atoms: _37  and  _39
REMARK   17  A    between atoms: _39  and  _40
REMARK   18  A    between atoms: _39  and  _42
REMARK   19  A    between atoms: _42  and  _43
REMARK   20  A    between atoms: _46  and  _48
REMARK   21  A    between atoms: _48  and  _49
REMARK   22  A    between atoms: _48  and  _51
REMARK   23  A    between atoms: _51  and  _52
REMARK   24  A    between atoms: _55  and  _57
REMARK   25  A    between atoms: _57  and  _58
REMARK   26  A    between atoms: _57  and  _60
REMARK   27  A    between atoms: _60  and  _61
REMARK   28  A    between atoms: _64  and  _66
REMARK   29  A    between atoms: _66  and  _67
REMARK   30  A    between atoms: _69  and  _71
REMARK   31  A    between atoms: _71  and  _72
REMARK   32  A    between atoms: _75  and  _77
REMARK   33  A    between atoms: _77  and  _78
REMARK   34  A    between atoms: _77  and  _80
REMARK   35  A    between atoms: _80  and  _81
REMARK   36  A    between atoms: _84  and  _86
REMARK   37  A    between atoms: _86  and  _87
REMARK   38  A    between atoms: _86  and  _89
REMARK   39  A    between atoms: _89  and  _90
REMARK   40  A    between atoms: _93  and  _95
REMARK   41  A    between atoms: _95  and  _96
REMARK   42  A    between atoms: _95  and  _98
REMARK   43  A    between atoms: _98  and  _99
REMARK   44  A    between atoms: _102  and  _104
REMARK   45  A    between atoms: _104  and  _105
REMARK   46  A    between atoms: _104  and  _107
REMARK   47  A    between atoms: _110  and  _112
REMARK   48  A    between atoms: _112  and  _113
REMARK   49  A    between atoms: _112  and  _115
REMARK   50  A    between atoms: _115  and  _116
REMARK   51  A    between atoms: _116  and  _117
REMARK   52  A    between atoms: _117  and  _118
REMARK   53  A    between atoms: _118  and  _119
REMARK   54  A    between atoms: _123  and  _125
REMARK   55  A    between atoms: _125  and  _126
REMARK   56  A    between atoms: _125  and  _128
REMARK   57  A    between atoms: _128  and  _129
REMARK   58  A    between atoms: _129  and  _130
REMARK   59  A    between atoms: _132  and  _134
REMARK   60  A    between atoms: _134  and  _135
REMARK   61  A    between atoms: _134  and  _137
REMARK   62  A    between atoms: _137  and  _138
REMARK   63  A    between atoms: _141  and  _143
REMARK   64  A    between atoms: _143  and  _144
REMARK   65  A    between atoms: _146  and  _148
REMARK   66  A    between atoms: _148  and  _149
REMARK   67  A    between atoms: _151  and  _153
REMARK   68  A    between atoms: _153  and  _154
REMARK   69  A    between atoms: _153  and  _156
REMARK   70  A    between atoms: _156  and  _157
REMARK   71  A    between atoms: _160  and  _162
REMARK   72  A    between atoms: _162  and  _163
REMARK   73  A    between atoms: _165  and  _167
REMARK   74  A    between atoms: _167  and  _168
REMARK   75  A    between atoms: _170  and  _172
REMARK   76  A    between atoms: _172  and  _173
REMARK   77  A    between atoms: _172  and  _175
REMARK   78  A    between atoms: _175  and  _176
REMARK   79  A    between atoms: _182  and  _184
REMARK   80  A    between atoms: _184  and  _185
REMARK   81  A    between atoms: _184  and  _187
REMARK   82  A    between atoms: _187  and  _188
REMARK   83  A    between atoms: _191  and  _193
REMARK   84  A    between atoms: _193  and  _194
REMARK   85  A    between atoms: _193  and  _196
REMARK   86  A    between atoms: _199  and  _201
REMARK   87  A    between atoms: _201  and  _202
REMARK   88  A    between atoms: _201  and  _204
REMARK   89  A    between atoms: _204  and  _205
REMARK   90  A    between atoms: _209  and  _210
REMARK   91  A    between atoms: _215  and  _217
REMARK   92  A    between atoms: _217  and  _218
REMARK   93  A    between atoms: _217  and  _220
REMARK   94  A    between atoms: _220  and  _221
REMARK   95  A    between atoms: _225  and  _226
REMARK   96  A    between atoms: _231  and  _233
REMARK   97  A    between atoms: _233  and  _234
REMARK   98  A    between atoms: _233  and  _236
REMARK   99  A    between atoms: _239  and  _241
REMARK  100  A    between atoms: _241  and  _242
REMARK  101  A    between atoms: _241  and  _244
REMARK  102  A    between atoms: _244  and  _245
REMARK  103  A    between atoms: _250  and  _252
REMARK  104  A    between atoms: _252  and  _253
REMARK  105  A    between atoms: _252  and  _255
REMARK  106  A    between atoms: _255  and  _256
REMARK  107  A    between atoms: _259  and  _261
REMARK  108  A    between atoms: _261  and  _262
REMARK  109  A    between atoms: _261  and  _264
REMARK  110  A    between atoms: _264  and  _265
REMARK  111  A    between atoms: _268  and  _270
REMARK  112  A    between atoms: _270  and  _271
REMARK  113  A    between atoms: _273  and  _275
REMARK  114  A    between atoms: _275  and  _276
REMARK  115  A    between atoms: _275  and  _278
REMARK  116  A    between atoms: _278  and  _279
REMARK  117  A    between atoms: _279  and  _280
REMARK  118  A    between atoms: _280  and  _281
REMARK  119  A    between atoms: _290  and  _292
REMARK  120  A    between atoms: _292  and  _293
REMARK  121  A    between atoms: _292  and  _295
REMARK  122  A    between atoms: _295  and  _296
REMARK  123  A    between atoms: _301  and  _303
REMARK  124  A    between atoms: _303  and  _304
REMARK  125  A    between atoms: _303  and  _306
REMARK  126  A    between atoms: _306  and  _307
REMARK  127  A    between atoms: _307  and  _308
REMARK  128  A    between atoms: _308  and  _309
REMARK  129  A    between atoms: _318  and  _320
REMARK  130  A    between atoms: _320  and  _321
REMARK  131  A    between atoms: _320  and  _323
REMARK  132  A    between atoms: _323  and  _324
REMARK  133  A    between atoms: _327  and  _329
REMARK  134  A    between atoms: _329  and  _330
REMARK  135  A    between atoms: _329  and  _332
REMARK  136  A    between atoms: _332  and  _333
REMARK  137  A    between atoms: _336  and  _338
REMARK  138  A    between atoms: _338  and  _339
REMARK  139  A    between atoms: _338  and  _341
REMARK  140  A    between atoms: _341  and  _342
REMARK  141  A    between atoms: _345  and  _347
REMARK  142  A    between atoms: _347  and  _348
REMARK  143  A    between atoms: _347  and  _350
REMARK  144  A    between atoms: _350  and  _351
REMARK  145  A    between atoms: _354  and  _356
REMARK  146  A    between atoms: _356  and  _357
REMARK  147  A    between atoms: _359  and  _361
REMARK  148  A    between atoms: _361  and  _362
REMARK  149  A    between atoms: _365  and  _367
REMARK  150  A    between atoms: _367  and  _368
REMARK  151  A    between atoms: _367  and  _370
REMARK  152  A    between atoms: _370  and  _371
REMARK  153  A    between atoms: _374  and  _376
REMARK  154  A    between atoms: _376  and  _377
REMARK  155  A    between atoms: _376  and  _379
REMARK  156  A    between atoms: _379  and  _380
REMARK  157  A    between atoms: _383  and  _385
REMARK  158  A    between atoms: _385  and  _386
REMARK  159  A    between atoms: _385  and  _388
REMARK  160  A    between atoms: _388  and  _389
REMARK  161  A    between atoms: _392  and  _394
REMARK  162  A    between atoms: _394  and  _395
REMARK  163  A    between atoms: _394  and  _397
REMARK  164  A    between atoms: _400  and  _402
REMARK  165  A    between atoms: _402  and  _403
REMARK  166  A    between atoms: _402  and  _405
REMARK  167  A    between atoms: _405  and  _406
REMARK  168  A    between atoms: _406  and  _407
REMARK  169  A    between atoms: _407  and  _408
REMARK  170  A    between atoms: _408  and  _409
REMARK  171  A    between atoms: _413  and  _415
REMARK  172  A    between atoms: _415  and  _416
REMARK  173  A    between atoms: _415  and  _418
REMARK  174  A    between atoms: _418  and  _419
REMARK  175  A    between atoms: _419  and  _420
REMARK  176  A    between atoms: _422  and  _424
REMARK  177  A    between atoms: _424  and  _425
REMARK  178  A    between atoms: _424  and  _427
REMARK  179  A    between atoms: _427  and  _428
REMARK  180  A    between atoms: _431  and  _433
REMARK  181  A    between atoms: _433  and  _434
REMARK  182  A    between atoms: _436  and  _438
REMARK  183  A    between atoms: _438  and  _439
REMARK  184  A    between atoms: _441  and  _443
REMARK  185  A    between atoms: _443  and  _444
REMARK  186  A    between atoms: _443  and  _446
REMARK  187  A    between atoms: _446  and  _447
REMARK  188  A    between atoms: _450  and  _452
REMARK  189  A    between atoms: _452  and  _453
REMARK  190  A    between atoms: _455  and  _457
REMARK  191  A    between atoms: _457  and  _458
REMARK  192  A    between atoms: _460  and  _462
REMARK  193  A    between atoms: _462  and  _463
REMARK  194  A    between atoms: _462  and  _465
REMARK  195  A    between atoms: _465  and  _466
REMARK  196  A    between atoms: _472  and  _474
REMARK  197  A    between atoms: _474  and  _475
REMARK  198  A    between atoms: _474  and  _477
REMARK  199  A    between atoms: _477  and  _478
REMARK  200  A    between atoms: _481  and  _483
REMARK  201  A    between atoms: _483  and  _484
REMARK  202  A    between atoms: _483  and  _486
REMARK  203  A    between atoms: _489  and  _491
REMARK  204  A    between atoms: _491  and  _492
REMARK  205  A    between atoms: _491  and  _494
REMARK  206  A    between atoms: _494  and  _495
REMARK  207  A    between atoms: _499  and  _500
REMARK  208  A    between atoms: _505  and  _507
REMARK  209  A    between atoms: _507  and  _508
REMARK  210  A    between atoms: _507  and  _510
REMARK  211  A    between atoms: _510  and  _511
REMARK  212  A    between atoms: _515  and  _516
REMARK  213  A    between atoms: _521  and  _523
REMARK  214  A    between atoms: _523  and  _524
REMARK  215  A    between atoms: _523  and  _526
REMARK  216  A    between atoms: _529  and  _531
REMARK  217  A    between atoms: _531  and  _532
REMARK  218  A    between atoms: _531  and  _534
REMARK  219  A    between atoms: _534  and  _535
REMARK  220  A    between atoms: _540  and  _542
REMARK  221  A    between atoms: _542  and  _543
REMARK  222  A    between atoms: _542  and  _545
REMARK  223  A    between atoms: _545  and  _546
REMARK  224  A    between atoms: _549  and  _551
REMARK  225  A    between atoms: _551  and  _552
REMARK  226  A    between atoms: _551  and  _554
REMARK  227  A    between atoms: _554  and  _555
REMARK  228  A    between atoms: _558  and  _560
REMARK  229  A    between atoms: _560  and  _561
REMARK  230  A    between atoms: _563  and  _565
REMARK  231  A    between atoms: _565  and  _566
REMARK  232  A    between atoms: _565  and  _568
REMARK  233  A    between atoms: _568  and  _569
REMARK  234  A    between atoms: _569  and  _570
REMARK  235  A    between atoms: _570  and  _571
REMARK  236  A    between atoms: _580  and  _582
REMARK  237  A    between atoms: _582  and  _583
REMARK  238  A    between atoms: _582  and  _585
REMARK  239  A    between atoms: _585  and  _586
REMARK                            x       y       z     vdW  Elec       q    Type
REMARK                         _______ _______ _______ _____ _____    ______ ____
ROOT
ATOM      1  O   HOH     1      24.972  33.149  15.527  0.00  0.00    +0.000 OA
ENDROOT
TORSDOF 0
REMARK  Name = ../refined-set-2016/2aod/2aod_pocket.pdb
REMARK  239 active torsions:
REMARK  status: ('A' for Active; 'I' for Inactive)
REMARK    1  A    between atoms: _1  and  _3
REMARK    2  A    between atoms: _3  and  _4
REMARK    3  A    between atoms: _3  and  _6
REMARK    4  A    between atoms: _6  and  _7
REMARK    5  A    between atoms: _7  and  _8
REMARK    6  A    between atoms: _8  and  _9
REMARK    7  A    between atoms: _18  and  _20
REMARK    8  A    between atoms: _20  and  _21
REMARK    9  A    between atoms: _20  and  _23
REMARK   10  A    between atoms: _23  and  _24
REMARK   11  A    between atoms: _27  and  _29
REMARK   12  A    between atoms: _29  and  _30
REMARK   13  A    between atoms: _29  and  _32
REMARK   14  A    between atoms: _32  and  _33
REMARK   15  A    between atoms: _33  and  _34
REMARK   16  A    between atoms: _37  and  _39
REMARK   17  A    between atoms: _39  and  _40
REMARK   18  A    between atoms: _39  and  _42
REMARK   19  A    between atoms: _42  and  _43
REMARK   20  A    between atoms: _46  and  _48
REMARK   21  A    between atoms: _48  and  _49
REMARK   22  A    between atoms: _48  and  _51
REMARK   23  A    between atoms: _51  and  _52
REMARK   24  A    between atoms: _55  and  _57
REMARK   25  A    between atoms: _57  and  _58
REMARK   26  A    between atoms: _57  and  _60
REMARK   27  A    between atoms: _60  and  _61
REMARK   28  A    between atoms: _64  and  _66
REMARK   29  A    between atoms: _66  and  _67
REMARK   30  A    between atoms: _69  and  _71
REMARK   31  A    between atoms: _71  and  _72
REMARK   32  A    between atoms: _75  and  _77
REMARK   33  A    between atoms: _77  and  _78
REMARK   34  A    between atoms: _77  and  _80
REMARK   35  A    between atoms: _80  and  _81
REMARK   36  A    between atoms: _84  and  _86
REMARK   37  A    between atoms: _86  and  _87
REMARK   38  A    between atoms: _86  and  _89
REMARK   39  A    between atoms: _89  and  _90
REMARK   40  A    between atoms: _93  and  _95
REMARK   41  A    between atoms: _95  and  _96
REMARK   42  A    between atoms: _95  and  _98
REMARK   43  A    between atoms: _98  and  _99
REMARK   44  A    between atoms: _102  and  _104
REMARK   45  A    between atoms: _104  and  _105
REMARK   46  A    between atoms: _104  and  _107
REMARK   47  A    between atoms: _110  and  _112
REMARK   48  A    between atoms: _112  and  _113
REMARK   49  A    between atoms: _112  and  _115
REMARK   50  A    between atoms: _115  and  _116
REMARK   51  A    between atoms: _116  and  _117
REMARK   52  A    between atoms: _117  and  _118
REMARK   53  A    between atoms: _118  and  _119
REMARK   54  A    between atoms: _123  and  _125
REMARK   55  A    between atoms: _125  and  _126
REMARK   56  A    between atoms: _125  and  _128
REMARK   57  A    between atoms: _128  and  _129
REMARK   58  A    between atoms: _129  and  _130
REMARK   59  A    between atoms: _132  and  _134
REMARK   60  A    between atoms: _134  and  _135
REMARK   61  A    between atoms: _134  and  _137
REMARK   62  A    between atoms: _137  and  _138
REMARK   63  A    between atoms: _141  and  _143
REMARK   64  A    between atoms: _143  and  _144
REMARK   65  A    between atoms: _146  and  _148
REMARK   66  A    between atoms: _148  and  _149
REMARK   67  A    between atoms: _151  and  _153
REMARK   68  A    between atoms: _153  and  _154
REMARK   69  A    between atoms: _153  and  _156
REMARK   70  A    between atoms: _156  and  _157
REMARK   71  A    between atoms: _160  and  _162
REMARK   72  A    between atoms: _162  and  _163
REMARK   73  A    between atoms: _165  and  _167
REMARK   74  A    between atoms: _167  and  _168
REMARK   75  A    between atoms: _170  and  _172
REMARK   76  A    between atoms: _172  and  _173
REMARK   77  A    between atoms: _172  and  _175
REMARK   78  A    between atoms: _175  and  _176
REMARK   79  A    between atoms: _182  and  _184
REMARK   80  A    between atoms: _184  and  _185
REMARK   81  A    between atoms: _184  and  _187
REMARK   82  A    between atoms: _187  and  _188
REMARK   83  A    between atoms: _191  and  _193
REMARK   84  A    between atoms: _193  and  _194
REMARK   85  A    between atoms: _193  and  _196
REMARK   86  A    between atoms: _199  and  _201
REMARK   87  A    between atoms: _201  and  _202
REMARK   88  A    between atoms: _201  and  _204
REMARK   89  A    between atoms: _204  and  _205
REMARK   90  A    between atoms: _209  and  _210
REMARK   91  A    between atoms: _215  and  _217
REMARK   92  A    between atoms: _217  and  _218
REMARK   93  A    between atoms: _217  and  _220
REMARK   94  A    between atoms: _220  and  _221
REMARK   95  A    between atoms: _225  and  _226
REMARK   96  A    between atoms: _231  and  _233
REMARK   97  A    between atoms: _233  and  _234
REMARK   98  A    between atoms: _233  and  _236
REMARK   99  A    between atoms: _239  and  _241
REMARK  100  A    between atoms: _241  and  _242
REMARK  101  A    between atoms: _241  and  _244
REMARK  102  A    between atoms: _244  and  _245
REMARK  103  A    between atoms: _250  and  _252
REMARK  104  A    between atoms: _252  and  _253
REMARK  105  A    between atoms: _252  and  _255
REMARK  106  A    between atoms: _255  and  _256
REMARK  107  A    between atoms: _259  and  _261
REMARK  108  A    between atoms: _261  and  _262
REMARK  109  A    between atoms: _261  and  _264
REMARK  110  A    between atoms: _264  and  _265
REMARK  111  A    between atoms: _268  and  _270
REMARK  112  A    between atoms: _270  and  _271
REMARK  113  A    between atoms: _273  and  _275
REMARK  114  A    between atoms: _275  and  _276
REMARK  115  A    between atoms: _275  and  _278
REMARK  116  A    between atoms: _278  and  _279
REMARK  117  A    between atoms: _279  and  _280
REMARK  118  A    between atoms: _280  and  _281
REMARK  119  A    between atoms: _290  and  _292
REMARK  120  A    between atoms: _292  and  _293
REMARK  121  A    between atoms: _292  and  _295
REMARK  122  A    between atoms: _295  and  _296
REMARK  123  A    between atoms: _301  and  _303
REMARK  124  A    between atoms: _303  and  _304
REMARK  125  A    between atoms: _303  and  _306
REMARK  126  A    between atoms: _306  and  _307
REMARK  127  A    between atoms: _307  and  _308
REMARK  128  A    between atoms: _308  and  _309
REMARK  129  A    between atoms: _318  and  _320
REMARK  130  A    between atoms: _320  and  _321
REMARK  131  A    between atoms: _320  and  _323
REMARK  132  A    between atoms: _323  and  _324
REMARK  133  A    between atoms: _327  and  _329
REMARK  134  A    between atoms: _329  and  _330
REMARK  135  A    between atoms: _329  and  _332
REMARK  136  A    between atoms: _332  and  _333
REMARK  137  A    between atoms: _336  and  _338
REMARK  138  A    between atoms: _338  and  _339
REMARK  139  A    between atoms: _338  and  _341
REMARK  140  A    between atoms: _341  and  _342
REMARK  141  A    between atoms: _345  and  _347
REMARK  142  A    between atoms: _347  and  _348
REMARK  143  A    between atoms: _347  and  _350
REMARK  144  A    between atoms: _350  and  _351
REMARK  145  A    between atoms: _354  and  _356
REMARK  146  A    between atoms: _356  and  _357
REMARK  147  A    between atoms: _359  and  _361
REMARK  148  A    between atoms: _361  and  _362
REMARK  149  A    between atoms: _365  and  _367
REMARK  150  A    between atoms: _367  and  _368
REMARK  151  A    between atoms: _367  and  _370
REMARK  152  A    between atoms: _370  and  _371
REMARK  153  A    between atoms: _374  and  _376
REMARK  154  A    between atoms: _376  and  _377
REMARK  155  A    between atoms: _376  and  _379
REMARK  156  A    between atoms: _379  and  _380
REMARK  157  A    between atoms: _383  and  _385
REMARK  158  A    between atoms: _385  and  _386
REMARK  159  A    between atoms: _385  and  _388
REMARK  160  A    between atoms: _388  and  _389
REMARK  161  A    between atoms: _392  and  _394
REMARK  162  A    between atoms: _394  and  _395
REMARK  163  A    between atoms: _394  and  _397
REMARK  164  A    between atoms: _400  and  _402
REMARK  165  A    between atoms: _402  and  _403
REMARK  166  A    between atoms: _402  and  _405
REMARK  167  A    between atoms: _405  and  _406
REMARK  168  A    between atoms: _406  and  _407
REMARK  169  A    between atoms: _407  and  _408
REMARK  170  A    between atoms: _408  and  _409
REMARK  171  A    between atoms: _413  and  _415
REMARK  172  A    between atoms: _415  and  _416
REMARK  173  A    between atoms: _415  and  _418
REMARK  174  A    between atoms: _418  and  _419
REMARK  175  A    between atoms: _419  and  _420
REMARK  176  A    between atoms: _422  and  _424
REMARK  177  A    between atoms: _424  and  _425
REMARK  178  A    between atoms: _424  and  _427
REMARK  179  A    between atoms: _427  and  _428
REMARK  180  A    between atoms: _431  and  _433
REMARK  181  A    between atoms: _433  and  _434
REMARK  182  A    between atoms: _436  and  _438
REMARK  183  A    between atoms: _438  and  _439
REMARK  184  A    between atoms: _441  and  _443
REMARK  185  A    between atoms: _443  and  _444
REMARK  186  A    between atoms: _443  and  _446
REMARK  187  A    between atoms: _446  and  _447
REMARK  188  A    between atoms: _450  and  _452
REMARK  189  A    between atoms: _452  and  _453
REMARK  190  A    between atoms: _455  and  _457
REMARK  191  A    between atoms: _457  and  _458
REMARK  192  A    between atoms: _460  and  _462
REMARK  193  A    between atoms: _462  and  _463
REMARK  194  A    between atoms: _462  and  _465
REMARK  195  A    between atoms: _465  and  _466
REMARK  196  A    between atoms: _472  and  _474
REMARK  197  A    between atoms: _474  and  _475
REMARK  198  A    between atoms: _474  and  _477
REMARK  199  A    between atoms: _477  and  _478
REMARK  200  A    between atoms: _481  and  _483
REMARK  201  A    between atoms: _483  and  _484
REMARK  202  A    between atoms: _483  and  _486
REMARK  203  A    between atoms: _489  and  _491
REMARK  204  A    between atoms: _491  and  _492
REMARK  205  A    between atoms: _491  and  _494
REMARK  206  A    between atoms: _494  and  _495
REMARK  207  A    between atoms: _499  and  _500
REMARK  208  A    between atoms: _505  and  _507
REMARK  209  A    between atoms: _507  and  _508
REMARK  210  A    between atoms: _507  and  _510
REMARK  211  A    between atoms: _510  and  _511
REMARK  212  A    between atoms: _515  and  _516
REMARK  213  A    between atoms: _521  and  _523
REMARK  214  A    between atoms: _523  and  _524
REMARK  215  A    between atoms: _523  and  _526
REMARK  216  A    between atoms: _529  and  _531
REMARK  217  A    between atoms: _531  and  _532
REMARK  218  A    between atoms: _531  and  _534
REMARK  219  A    between atoms: _534  and  _535
REMARK  220  A    between atoms: _540  and  _542
REMARK  221  A    between atoms: _542  and  _543
REMARK  222  A    between atoms: _542  and  _545
REMARK  223  A    between atoms: _545  and  _546
REMARK  224  A    between atoms: _549  and  _551
REMARK  225  A    between atoms: _551  and  _552
REMARK  226  A    between atoms: _551  and  _554
REMARK  227  A    between atoms: _554  and  _555
REMARK  228  A    between atoms: _558  and  _560
REMARK  229  A    between atoms: _560  and  _561
REMARK  230  A    between atoms: _563  and  _565
REMARK  231  A    between atoms: _565  and  _566
REMARK  232  A    between atoms: _565  and  _568
REMARK  233  A    between atoms: _568  and  _569
REMARK  234  A    between atoms: _569  and  _570
REMARK  235  A    between atoms: _570  and  _571
REMARK  236  A    between atoms: _580  and  _582
REMARK  237  A    between atoms: _582  and  _583
REMARK  238  A    between atoms: _582  and  _585
REMARK  239  A    between atoms: _585  and  _586
REMARK                            x       y       z     vdW  Elec       q    Type
REMARK                         _______ _______ _______ _____ _____    ______ ____
ROOT
ATOM      1  O   HOH     1      22.807  34.572  12.327  0.00  0.00    +0.000 OA
ENDROOT
TORSDOF 0
REMARK  Name = ../refined-set-2016/2aod/2aod_pocket.pdb
REMARK  239 active torsions:
REMARK  status: ('A' for Active; 'I' for Inactive)
REMARK    1  A    between atoms: _1  and  _3
REMARK    2  A    between atoms: _3  and  _4
REMARK    3  A    between atoms: _3  and  _6
REMARK    4  A    between atoms: _6  and  _7
REMARK    5  A    between atoms: _7  and  _8
REMARK    6  A    between atoms: _8  and  _9
REMARK    7  A    between atoms: _18  and  _20
REMARK    8  A    between atoms: _20  and  _21
REMARK    9  A    between atoms: _20  and  _23
REMARK   10  A    between atoms: _23  and  _24
REMARK   11  A    between atoms: _27  and  _29
REMARK   12  A    between atoms: _29  and  _30
REMARK   13  A    between atoms: _29  and  _32
REMARK   14  A    between atoms: _32  and  _33
REMARK   15  A    between atoms: _33  and  _34
REMARK   16  A    between atoms: _37  and  _39
REMARK   17  A    between atoms: _39  and  _40
REMARK   18  A    between atoms: _39  and  _42
REMARK   19  A    between atoms: _42  and  _43
REMARK   20  A    between atoms: _46  and  _48
REMARK   21  A    between atoms: _48  and  _49
REMARK   22  A    between atoms: _48  and  _51
REMARK   23  A    between atoms: _51  and  _52
REMARK   24  A    between atoms: _55  and  _57
REMARK   25  A    between atoms: _57  and  _58
REMARK   26  A    between atoms: _57  and  _60
REMARK   27  A    between atoms: _60  and  _61
REMARK   28  A    between atoms: _64  and  _66
REMARK   29  A    between atoms: _66  and  _67
REMARK   30  A    between atoms: _69  and  _71
REMARK   31  A    between atoms: _71  and  _72
REMARK   32  A    between atoms: _75  and  _77
REMARK   33  A    between atoms: _77  and  _78
REMARK   34  A    between atoms: _77  and  _80
REMARK   35  A    between atoms: _80  and  _81
REMARK   36  A    between atoms: _84  and  _86
REMARK   37  A    between atoms: _86  and  _87
REMARK   38  A    between atoms: _86  and  _89
REMARK   39  A    between atoms: _89  and  _90
REMARK   40  A    between atoms: _93  and  _95
REMARK   41  A    between atoms: _95  and  _96
REMARK   42  A    between atoms: _95  and  _98
REMARK   43  A    between atoms: _98  and  _99
REMARK   44  A    between atoms: _102  and  _104
REMARK   45  A    between atoms: _104  and  _105
REMARK   46  A    between atoms: _104  and  _107
REMARK   47  A    between atoms: _110  and  _112
REMARK   48  A    between atoms: _112  and  _113
REMARK   49  A    between atoms: _112  and  _115
REMARK   50  A    between atoms: _115  and  _116
REMARK   51  A    between atoms: _116  and  _117
REMARK   52  A    between atoms: _117  and  _118
REMARK   53  A    between atoms: _118  and  _119
REMARK   54  A    between atoms: _123  and  _125
REMARK   55  A    between atoms: _125  and  _126
REMARK   56  A    between atoms: _125  and  _128
REMARK   57  A    between atoms: _128  and  _129
REMARK   58  A    between atoms: _129  and  _130
REMARK   59  A    between atoms: _132  and  _134
REMARK   60  A    between atoms: _134  and  _135
REMARK   61  A    between atoms: _134  and  _137
REMARK   62  A    between atoms: _137  and  _138
REMARK   63  A    between atoms: _141  and  _143
REMARK   64  A    between atoms: _143  and  _144
REMARK   65  A    between atoms: _146  and  _148
REMARK   66  A    between atoms: _148  and  _149
REMARK   67  A    between atoms: _151  and  _153
REMARK   68  A    between atoms: _153  and  _154
REMARK   69  A    between atoms: _153  and  _156
REMARK   70  A    between atoms: _156  and  _157
REMARK   71  A    between atoms: _160  and  _162
REMARK   72  A    between atoms: _162  and  _163
REMARK   73  A    between atoms: _165  and  _167
REMARK   74  A    between atoms: _167  and  _168
REMARK   75  A    between atoms: _170  and  _172
REMARK   76  A    between atoms: _172  and  _173
REMARK   77  A    between atoms: _172  and  _175
REMARK   78  A    between atoms: _175  and  _176
REMARK   79  A    between atoms: _182  and  _184
REMARK   80  A    between atoms: _184  and  _185
REMARK   81  A    between atoms: _184  and  _187
REMARK   82  A    between atoms: _187  and  _188
REMARK   83  A    between atoms: _191  and  _193
REMARK   84  A    between atoms: _193  and  _194
REMARK   85  A    between atoms: _193  and  _196
REMARK   86  A    between atoms: _199  and  _201
REMARK   87  A    between atoms: _201  and  _202
REMARK   88  A    between atoms: _201  and  _204
REMARK   89  A    between atoms: _204  and  _205
REMARK   90  A    between atoms: _209  and  _210
REMARK   91  A    between atoms: _215  and  _217
REMARK   92  A    between atoms: _217  and  _218
REMARK   93  A    between atoms: _217  and  _220
REMARK   94  A    between atoms: _220  and  _221
REMARK   95  A    between atoms: _225  and  _226
REMARK   96  A    between atoms: _231  and  _233
REMARK   97  A    between atoms: _233  and  _234
REMARK   98  A    between atoms: _233  and  _236
REMARK   99  A    between atoms: _239  and  _241
REMARK  100  A    between atoms: _241  and  _242
REMARK  101  A    between atoms: _241  and  _244
REMARK  102  A    between atoms: _244  and  _245
REMARK  103  A    between atoms: _250  and  _252
REMARK  104  A    between atoms: _252  and  _253
REMARK  105  A    between atoms: _252  and  _255
REMARK  106  A    between atoms: _255  and  _256
REMARK  107  A    between atoms: _259  and  _261
REMARK  108  A    between atoms: _261  and  _262
REMARK  109  A    between atoms: _261  and  _264
REMARK  110  A    between atoms: _264  and  _265
REMARK  111  A    between atoms: _268  and  _270
REMARK  112  A    between atoms: _270  and  _271
REMARK  113  A    between atoms: _273  and  _275
REMARK  114  A    between atoms: _275  and  _276
REMARK  115  A    between atoms: _275  and  _278
REMARK  116  A    between atoms: _278  and  _279
REMARK  117  A    between atoms: _279  and  _280
REMARK  118  A    between atoms: _280  and  _281
REMARK  119  A    between atoms: _290  and  _292
REMARK  120  A    between atoms: _292  and  _293
REMARK  121  A    between atoms: _292  and  _295
REMARK  122  A    between atoms: _295  and  _296
REMARK  123  A    between atoms: _301  and  _303
REMARK  124  A    between atoms: _303  and  _304
REMARK  125  A    between atoms: _303  and  _306
REMARK  126  A    between atoms: _306  and  _307
REMARK  127  A    between atoms: _307  and  _308
REMARK  128  A    between atoms: _308  and  _309
REMARK  129  A    between atoms: _318  and  _320
REMARK  130  A    between atoms: _320  and  _321
REMARK  131  A    between atoms: _320  and  _323
REMARK  132  A    between atoms: _323  and  _324
REMARK  133  A    between atoms: _327  and  _329
REMARK  134  A    between atoms: _329  and  _330
REMARK  135  A    between atoms: _329  and  _332
REMARK  136  A    between atoms: _332  and  _333
REMARK  137  A    between atoms: _336  and  _338
REMARK  138  A    between atoms: _338  and  _339
REMARK  139  A    between atoms: _338  and  _341
REMARK  140  A    between atoms: _341  and  _342
REMARK  141  A    between atoms: _345  and  _347
REMARK  142  A    between atoms: _347  and  _348
REMARK  143  A    between atoms: _347  and  _350
REMARK  144  A    between atoms: _350  and  _351
REMARK  145  A    between atoms: _354  and  _356
REMARK  146  A    between atoms: _356  and  _357
REMARK  147  A    between atoms: _359  and  _361
REMARK  148  A    between atoms: _361  and  _362
REMARK  149  A    between atoms: _365  and  _367
REMARK  150  A    between atoms: _367  and  _368
REMARK  151  A    between atoms: _367  and  _370
REMARK  152  A    between atoms: _370  and  _371
REMARK  153  A    between atoms: _374  and  _376
REMARK  154  A    between atoms: _376  and  _377
REMARK  155  A    between atoms: _376  and  _379
REMARK  156  A    between atoms: _379  and  _380
REMARK  157  A    between atoms: _383  and  _385
REMARK  158  A    between atoms: _385  and  _386
REMARK  159  A    between atoms: _385  and  _388
REMARK  160  A    between atoms: _388  and  _389
REMARK  161  A    between atoms: _392  and  _394
REMARK  162  A    between atoms: _394  and  _395
REMARK  163  A    between atoms: _394  and  _397
REMARK  164  A    between atoms: _400  and  _402
REMARK  165  A    between atoms: _402  and  _403
REMARK  166  A    between atoms: _402  and  _405
REMARK  167  A    between atoms: _405  and  _406
REMARK  168  A    between atoms: _406  and  _407
REMARK  169  A    between atoms: _407  and  _408
REMARK  170  A    between atoms: _408  and  _409
REMARK  171  A    between atoms: _413  and  _415
REMARK  172  A    between atoms: _415  and  _416
REMARK  173  A    between atoms: _415  and  _418
REMARK  174  A    between atoms: _418  and  _419
REMARK  175  A    between atoms: _419  and  _420
REMARK  176  A    between atoms: _422  and  _424
REMARK  177  A    between atoms: _424  and  _425
REMARK  178  A    between atoms: _424  and  _427
REMARK  179  A    between atoms: _427  and  _428
REMARK  180  A    between atoms: _431  and  _433
REMARK  181  A    between atoms: _433  and  _434
REMARK  182  A    between atoms: _436  and  _438
REMARK  183  A    between atoms: _438  and  _439
REMARK  184  A    between atoms: _441  and  _443
REMARK  185  A    between atoms: _443  and  _444
REMARK  186  A    between atoms: _443  and  _446
REMARK  187  A    between atoms: _446  and  _447
REMARK  188  A    between atoms: _450  and  _452
REMARK  189  A    between atoms: _452  and  _453
REMARK  190  A    between atoms: _455  and  _457
REMARK  191  A    between atoms: _457  and  _458
REMARK  192  A    between atoms: _460  and  _462
REMARK  193  A    between atoms: _462  and  _463
REMARK  194  A    between atoms: _462  and  _465
REMARK  195  A    between atoms: _465  and  _466
REMARK  196  A    between atoms: _472  and  _474
REMARK  197  A    between atoms: _474  and  _475
REMARK  198  A    between atoms: _474  and  _477
REMARK  199  A    between atoms: _477  and  _478
REMARK  200  A    between atoms: _481  and  _483
REMARK  201  A    between atoms: _483  and  _484
REMARK  202  A    between atoms: _483  and  _486
REMARK  203  A    between atoms: _489  and  _491
REMARK  204  A    between atoms: _491  and  _492
REMARK  205  A    between atoms: _491  and  _494
REMARK  206  A    between atoms: _494  and  _495
REMARK  207  A    between atoms: _499  and  _500
REMARK  208  A    between atoms: _505  and  _507
REMARK  209  A    between atoms: _507  and  _508
REMARK  210  A    between atoms: _507  and  _510
REMARK  211  A    between atoms: _510  and  _511
REMARK  212  A    between atoms: _515  and  _516
REMARK  213  A    between atoms: _521  and  _523
REMARK  214  A    between atoms: _523  and  _524
REMARK  215  A    between atoms: _523  and  _526
REMARK  216  A    between atoms: _529  and  _531
REMARK  217  A    between atoms: _531  and  _532
REMARK  218  A    between atoms: _531  and  _534
REMARK  219  A    between atoms: _534  and  _535
REMARK  220  A    between atoms: _540  and  _542
REMARK  221  A    between atoms: _542  and  _543
REMARK  222  A    between atoms: _542  and  _545
REMARK  223  A    between atoms: _545  and  _546
REMARK  224  A    between atoms: _549  and  _551
REMARK  225  A    between atoms: _551  and  _552
REMARK  226  A    between atoms: _551  and  _554
REMARK  227  A    between atoms: _554  and  _555
REMARK  228  A    between atoms: _558  and  _560
REMARK  229  A    between atoms: _560  and  _561
REMARK  230  A    between atoms: _563  and  _565
REMARK  231  A    between atoms: _565  and  _566
REMARK  232  A    between atoms: _565  and  _568
REMARK  233  A    between atoms: _568  and  _569
REMARK  234  A    between atoms: _569  and  _570
REMARK  235  A    between atoms: _570  and  _571
REMARK  236  A    between atoms: _580  and  _582
REMARK  237  A    between atoms: _582  and  _583
REMARK  238  A    between atoms: _582  and  _585
REMARK  239  A    between atoms: _585  and  _586
REMARK                            x       y       z     vdW  Elec       q    Type
REMARK                         _______ _______ _______ _____ _____    ______ ____
ROOT
ATOM      1  O   HOH     1      25.501  31.004  17.254  0.00  0.00    +0.000 OA
ENDROOT
TORSDOF 0
REMARK  Name = ../refined-set-2016/2aod/2aod_pocket.pdb
REMARK  239 active torsions:
REMARK  status: ('A' for Active; 'I' for Inactive)
REMARK    1  A    between atoms: _1  and  _3
REMARK    2  A    between atoms: _3  and  _4
REMARK    3  A    between atoms: _3  and  _6
REMARK    4  A    between atoms: _6  and  _7
REMARK    5  A    between atoms: _7  and  _8
REMARK    6  A    between atoms: _8  and  _9
REMARK    7  A    between atoms: _18  and  _20
REMARK    8  A    between atoms: _20  and  _21
REMARK    9  A    between atoms: _20  and  _23
REMARK   10  A    between atoms: _23  and  _24
REMARK   11  A    between atoms: _27  and  _29
REMARK   12  A    between atoms: _29  and  _30
REMARK   13  A    between atoms: _29  and  _32
REMARK   14  A    between atoms: _32  and  _33
REMARK   15  A    between atoms: _33  and  _34
REMARK   16  A    between atoms: _37  and  _39
REMARK   17  A    between atoms: _39  and  _40
REMARK   18  A    between atoms: _39  and  _42
REMARK   19  A    between atoms: _42  and  _43
REMARK   20  A    between atoms: _46  and  _48
REMARK   21  A    between atoms: _48  and  _49
REMARK   22  A    between atoms: _48  and  _51
REMARK   23  A    between atoms: _51  and  _52
REMARK   24  A    between atoms: _55  and  _57
REMARK   25  A    between atoms: _57  and  _58
REMARK   26  A    between atoms: _57  and  _60
REMARK   27  A    between atoms: _60  and  _61
REMARK   28  A    between atoms: _64  and  _66
REMARK   29  A    between atoms: _66  and  _67
REMARK   30  A    between atoms: _69  and  _71
REMARK   31  A    between atoms: _71  and  _72
REMARK   32  A    between atoms: _75  and  _77
REMARK   33  A    between atoms: _77  and  _78
REMARK   34  A    between atoms: _77  and  _80
REMARK   35  A    between atoms: _80  and  _81
REMARK   36  A    between atoms: _84  and  _86
REMARK   37  A    between atoms: _86  and  _87
REMARK   38  A    between atoms: _86  and  _89
REMARK   39  A    between atoms: _89  and  _90
REMARK   40  A    between atoms: _93  and  _95
REMARK   41  A    between atoms: _95  and  _96
REMARK   42  A    between atoms: _95  and  _98
REMARK   43  A    between atoms: _98  and  _99
REMARK   44  A    between atoms: _102  and  _104
REMARK   45  A    between atoms: _104  and  _105
REMARK   46  A    between atoms: _104  and  _107
REMARK   47  A    between atoms: _110  and  _112
REMARK   48  A    between atoms: _112  and  _113
REMARK   49  A    between atoms: _112  and  _115
REMARK   50  A    between atoms: _115  and  _116
REMARK   51  A    between atoms: _116  and  _117
REMARK   52  A    between atoms: _117  and  _118
REMARK   53  A    between atoms: _118  and  _119
REMARK   54  A    between atoms: _123  and  _125
REMARK   55  A    between atoms: _125  and  _126
REMARK   56  A    between atoms: _125  and  _128
REMARK   57  A    between atoms: _128  and  _129
REMARK   58  A    between atoms: _129  and  _130
REMARK   59  A    between atoms: _132  and  _134
REMARK   60  A    between atoms: _134  and  _135
REMARK   61  A    between atoms: _134  and  _137
REMARK   62  A    between atoms: _137  and  _138
REMARK   63  A    between atoms: _141  and  _143
REMARK   64  A    between atoms: _143  and  _144
REMARK   65  A    between atoms: _146  and  _148
REMARK   66  A    between atoms: _148  and  _149
REMARK   67  A    between atoms: _151  and  _153
REMARK   68  A    between atoms: _153  and  _154
REMARK   69  A    between atoms: _153  and  _156
REMARK   70  A    between atoms: _156  and  _157
REMARK   71  A    between atoms: _160  and  _162
REMARK   72  A    between atoms: _162  and  _163
REMARK   73  A    between atoms: _165  and  _167
REMARK   74  A    between atoms: _167  and  _168
REMARK   75  A    between atoms: _170  and  _172
REMARK   76  A    between atoms: _172  and  _173
REMARK   77  A    between atoms: _172  and  _175
REMARK   78  A    between atoms: _175  and  _176
REMARK   79  A    between atoms: _182  and  _184
REMARK   80  A    between atoms: _184  and  _185
REMARK   81  A    between atoms: _184  and  _187
REMARK   82  A    between atoms: _187  and  _188
REMARK   83  A    between atoms: _191  and  _193
REMARK   84  A    between atoms: _193  and  _194
REMARK   85  A    between atoms: _193  and  _196
REMARK   86  A    between atoms: _199  and  _201
REMARK   87  A    between atoms: _201  and  _202
REMARK   88  A    between atoms: _201  and  _204
REMARK   89  A    between atoms: _204  and  _205
REMARK   90  A    between atoms: _209  and  _210
REMARK   91  A    between atoms: _215  and  _217
REMARK   92  A    between atoms: _217  and  _218
REMARK   93  A    between atoms: _217  and  _220
REMARK   94  A    between atoms: _220  and  _221
REMARK   95  A    between atoms: _225  and  _226
REMARK   96  A    between atoms: _231  and  _233
REMARK   97  A    between atoms: _233  and  _234
REMARK   98  A    between atoms: _233  and  _236
REMARK   99  A    between atoms: _239  and  _241
REMARK  100  A    between atoms: _241  and  _242
REMARK  101  A    between atoms: _241  and  _244
REMARK  102  A    between atoms: _244  and  _245
REMARK  103  A    between atoms: _250  and  _252
REMARK  104  A    between atoms: _252  and  _253
REMARK  105  A    between atoms: _252  and  _255
REMARK  106  A    between atoms: _255  and  _256
REMARK  107  A    between atoms: _259  and  _261
REMARK  108  A    between atoms: _261  and  _262
REMARK  109  A    between atoms: _261  and  _264
REMARK  110  A    between atoms: _264  and  _265
REMARK  111  A    between atoms: _268  and  _270
REMARK  112  A    between atoms: _270  and  _271
REMARK  113  A    between atoms: _273  and  _275
REMARK  114  A    between atoms: _275  and  _276
REMARK  115  A    between atoms: _275  and  _278
REMARK  116  A    between atoms: _278  and  _279
REMARK  117  A    between atoms: _279  and  _280
REMARK  118  A    between atoms: _280  and  _281
REMARK  119  A    between atoms: _290  and  _292
REMARK  120  A    between atoms: _292  and  _293
REMARK  121  A    between atoms: _292  and  _295
REMARK  122  A    between atoms: _295  and  _296
REMARK  123  A    between atoms: _301  and  _303
REMARK  124  A    between atoms: _303  and  _304
REMARK  125  A    between atoms: _303  and  _306
REMARK  126  A    between atoms: _306  and  _307
REMARK  127  A    between atoms: _307  and  _308
REMARK  128  A    between atoms: _308  and  _309
REMARK  129  A    between atoms: _318  and  _320
REMARK  130  A    between atoms: _320  and  _321
REMARK  131  A    between atoms: _320  and  _323
REMARK  132  A    between atoms: _323  and  _324
REMARK  133  A    between atoms: _327  and  _329
REMARK  134  A    between atoms: _329  and  _330
REMARK  135  A    between atoms: _329  and  _332
REMARK  136  A    between atoms: _332  and  _333
REMARK  137  A    between atoms: _336  and  _338
REMARK  138  A    between atoms: _338  and  _339
REMARK  139  A    between atoms: _338  and  _341
REMARK  140  A    between atoms: _341  and  _342
REMARK  141  A    between atoms: _345  and  _347
REMARK  142  A    between atoms: _347  and  _348
REMARK  143  A    between atoms: _347  and  _350
REMARK  144  A    between atoms: _350  and  _351
REMARK  145  A    between atoms: _354  and  _356
REMARK  146  A    between atoms: _356  and  _357
REMARK  147  A    between atoms: _359  and  _361
REMARK  148  A    between atoms: _361  and  _362
REMARK  149  A    between atoms: _365  and  _367
REMARK  150  A    between atoms: _367  and  _368
REMARK  151  A    between atoms: _367  and  _370
REMARK  152  A    between atoms: _370  and  _371
REMARK  153  A    between atoms: _374  and  _376
REMARK  154  A    between atoms: _376  and  _377
REMARK  155  A    between atoms: _376  and  _379
REMARK  156  A    between atoms: _379  and  _380
REMARK  157  A    between atoms: _383  and  _385
REMARK  158  A    between atoms: _385  and  _386
REMARK  159  A    between atoms: _385  and  _388
REMARK  160  A    between atoms: _388  and  _389
REMARK  161  A    between atoms: _392  and  _394
REMARK  162  A    between atoms: _394  and  _395
REMARK  163  A    between atoms: _394  and  _397
REMARK  164  A    between atoms: _400  and  _402
REMARK  165  A    between atoms: _402  and  _403
REMARK  166  A    between atoms: _402  and  _405
REMARK  167  A    between atoms: _405  and  _406
REMARK  168  A    between atoms: _406  and  _407
REMARK  169  A    between atoms: _407  and  _408
REMARK  170  A    between atoms: _408  and  _409
REMARK  171  A    between atoms: _413  and  _415
REMARK  172  A    between atoms: _415  and  _416
REMARK  173  A    between atoms: _415  and  _418
REMARK  174  A    between atoms: _418  and  _419
REMARK  175  A    between atoms: _419  and  _420
REMARK  176  A    between atoms: _422  and  _424
REMARK  177  A    between atoms: _424  and  _425
REMARK  178  A    between atoms: _424  and  _427
REMARK  179  A    between atoms: _427  and  _428
REMARK  180  A    between atoms: _431  and  _433
REMARK  181  A    between atoms: _433  and  _434
REMARK  182  A    between atoms: _436  and  _438
REMARK  183  A    between atoms: _438  and  _439
REMARK  184  A    between atoms: _441  and  _443
REMARK  185  A    between atoms: _443  and  _444
REMARK  186  A    between atoms: _443  and  _446
REMARK  187  A    between atoms: _446  and  _447
REMARK  188  A    between atoms: _450  and  _452
REMARK  189  A    between atoms: _452  and  _453
REMARK  190  A    between atoms: _455  and  _457
REMARK  191  A    between atoms: _457  and  _458
REMARK  192  A    between atoms: _460  and  _462
REMARK  193  A    between atoms: _462  and  _463
REMARK  194  A    between atoms: _462  and  _465
REMARK  195  A    between atoms: _465  and  _466
REMARK  196  A    between atoms: _472  and  _474
REMARK  197  A    between atoms: _474  and  _475
REMARK  198  A    between atoms: _474  and  _477
REMARK  199  A    between atoms: _477  and  _478
REMARK  200  A    between atoms: _481  and  _483
REMARK  201  A    between atoms: _483  and  _484
REMARK  202  A    between atoms: _483  and  _486
REMARK  203  A    between atoms: _489  and  _491
REMARK  204  A    between atoms: _491  and  _492
REMARK  205  A    between atoms: _491  and  _494
REMARK  206  A    between atoms: _494  and  _495
REMARK  207  A    between atoms: _499  and  _500
REMARK  208  A    between atoms: _505  and  _507
REMARK  209  A    between atoms: _507  and  _508
REMARK  210  A    between atoms: _507  and  _510
REMARK  211  A    between atoms: _510  and  _511
REMARK  212  A    between atoms: _515  and  _516
REMARK  213  A    between atoms: _521  and  _523
REMARK  214  A    between atoms: _523  and  _524
REMARK  215  A    between atoms: _523  and  _526
REMARK  216  A    between atoms: _529  and  _531
REMARK  217  A    between atoms: _531  and  _532
REMARK  218  A    between atoms: _531  and  _534
REMARK  219  A    between atoms: _534  and  _535
REMARK  220  A    between atoms: _540  and  _542
REMARK  221  A    between atoms: _542  and  _543
REMARK  222  A    between atoms: _542  and  _545
REMARK  223  A    between atoms: _545  and  _546
REMARK  224  A    between atoms: _549  and  _551
REMARK  225  A    between atoms: _551  and  _552
REMARK  226  A    between atoms: _551  and  _554
REMARK  227  A    between atoms: _554  and  _555
REMARK  228  A    between atoms: _558  and  _560
REMARK  229  A    between atoms: _560  and  _561
REMARK  230  A    between atoms: _563  and  _565
REMARK  231  A    between atoms: _565  and  _566
REMARK  232  A    between atoms: _565  and  _568
REMARK  233  A    between atoms: _568  and  _569
REMARK  234  A    between atoms: _569  and  _570
REMARK  235  A    between atoms: _570  and  _571
REMARK  236  A    between atoms: _580  and  _582
REMARK  237  A    between atoms: _582  and  _583
REMARK  238  A    between atoms: _582  and  _585
REMARK  239  A    between atoms: _585  and  _586
REMARK                            x       y       z     vdW  Elec       q    Type
REMARK                         _______ _______ _______ _____ _____    ______ ____
ROOT
ATOM      1  O   HOH     1      21.407  35.414  17.302  0.00  0.00    +0.000 OA
ENDROOT
TORSDOF 0
REMARK  Name = ../refined-set-2016/2aod/2aod_pocket.pdb
REMARK  239 active torsions:
REMARK  status: ('A' for Active; 'I' for Inactive)
REMARK    1  A    between atoms: _1  and  _3
REMARK    2  A    between atoms: _3  and  _4
REMARK    3  A    between atoms: _3  and  _6
REMARK    4  A    between atoms: _6  and  _7
REMARK    5  A    between atoms: _7  and  _8
REMARK    6  A    between atoms: _8  and  _9
REMARK    7  A    between atoms: _18  and  _20
REMARK    8  A    between atoms: _20  and  _21
REMARK    9  A    between atoms: _20  and  _23
REMARK   10  A    between atoms: _23  and  _24
REMARK   11  A    between atoms: _27  and  _29
REMARK   12  A    between atoms: _29  and  _30
REMARK   13  A    between atoms: _29  and  _32
REMARK   14  A    between atoms: _32  and  _33
REMARK   15  A    between atoms: _33  and  _34
REMARK   16  A    between atoms: _37  and  _39
REMARK   17  A    between atoms: _39  and  _40
REMARK   18  A    between atoms: _39  and  _42
REMARK   19  A    between atoms: _42  and  _43
REMARK   20  A    between atoms: _46  and  _48
REMARK   21  A    between atoms: _48  and  _49
REMARK   22  A    between atoms: _48  and  _51
REMARK   23  A    between atoms: _51  and  _52
REMARK   24  A    between atoms: _55  and  _57
REMARK   25  A    between atoms: _57  and  _58
REMARK   26  A    between atoms: _57  and  _60
REMARK   27  A    between atoms: _60  and  _61
REMARK   28  A    between atoms: _64  and  _66
REMARK   29  A    between atoms: _66  and  _67
REMARK   30  A    between atoms: _69  and  _71
REMARK   31  A    between atoms: _71  and  _72
REMARK   32  A    between atoms: _75  and  _77
REMARK   33  A    between atoms: _77  and  _78
REMARK   34  A    between atoms: _77  and  _80
REMARK   35  A    between atoms: _80  and  _81
REMARK   36  A    between atoms: _84  and  _86
REMARK   37  A    between atoms: _86  and  _87
REMARK   38  A    between atoms: _86  and  _89
REMARK   39  A    between atoms: _89  and  _90
REMARK   40  A    between atoms: _93  and  _95
REMARK   41  A    between atoms: _95  and  _96
REMARK   42  A    between atoms: _95  and  _98
REMARK   43  A    between atoms: _98  and  _99
REMARK   44  A    between atoms: _102  and  _104
REMARK   45  A    between atoms: _104  and  _105
REMARK   46  A    between atoms: _104  and  _107
REMARK   47  A    between atoms: _110  and  _112
REMARK   48  A    between atoms: _112  and  _113
REMARK   49  A    between atoms: _112  and  _115
REMARK   50  A    between atoms: _115  and  _116
REMARK   51  A    between atoms: _116  and  _117
REMARK   52  A    between atoms: _117  and  _118
REMARK   53  A    between atoms: _118  and  _119
REMARK   54  A    between atoms: _123  and  _125
REMARK   55  A    between atoms: _125  and  _126
REMARK   56  A    between atoms: _125  and  _128
REMARK   57  A    between atoms: _128  and  _129
REMARK   58  A    between atoms: _129  and  _130
REMARK   59  A    between atoms: _132  and  _134
REMARK   60  A    between atoms: _134  and  _135
REMARK   61  A    between atoms: _134  and  _137
REMARK   62  A    between atoms: _137  and  _138
REMARK   63  A    between atoms: _141  and  _143
REMARK   64  A    between atoms: _143  and  _144
REMARK   65  A    between atoms: _146  and  _148
REMARK   66  A    between atoms: _148  and  _149
REMARK   67  A    between atoms: _151  and  _153
REMARK   68  A    between atoms: _153  and  _154
REMARK   69  A    between atoms: _153  and  _156
REMARK   70  A    between atoms: _156  and  _157
REMARK   71  A    between atoms: _160  and  _162
REMARK   72  A    between atoms: _162  and  _163
REMARK   73  A    between atoms: _165  and  _167
REMARK   74  A    between atoms: _167  and  _168
REMARK   75  A    between atoms: _170  and  _172
REMARK   76  A    between atoms: _172  and  _173
REMARK   77  A    between atoms: _172  and  _175
REMARK   78  A    between atoms: _175  and  _176
REMARK   79  A    between atoms: _182  and  _184
REMARK   80  A    between atoms: _184  and  _185
REMARK   81  A    between atoms: _184  and  _187
REMARK   82  A    between atoms: _187  and  _188
REMARK   83  A    between atoms: _191  and  _193
REMARK   84  A    between atoms: _193  and  _194
REMARK   85  A    between atoms: _193  and  _196
REMARK   86  A    between atoms: _199  and  _201
REMARK   87  A    between atoms: _201  and  _202
REMARK   88  A    between atoms: _201  and  _204
REMARK   89  A    between atoms: _204  and  _205
REMARK   90  A    between atoms: _209  and  _210
REMARK   91  A    between atoms: _215  and  _217
REMARK   92  A    between atoms: _217  and  _218
REMARK   93  A    between atoms: _217  and  _220
REMARK   94  A    between atoms: _220  and  _221
REMARK   95  A    between atoms: _225  and  _226
REMARK   96  A    between atoms: _231  and  _233
REMARK   97  A    between atoms: _233  and  _234
REMARK   98  A    between atoms: _233  and  _236
REMARK   99  A    between atoms: _239  and  _241
REMARK  100  A    between atoms: _241  and  _242
REMARK  101  A    between atoms: _241  and  _244
REMARK  102  A    between atoms: _244  and  _245
REMARK  103  A    between atoms: _250  and  _252
REMARK  104  A    between atoms: _252  and  _253
REMARK  105  A    between atoms: _252  and  _255
REMARK  106  A    between atoms: _255  and  _256
REMARK  107  A    between atoms: _259  and  _261
REMARK  108  A    between atoms: _261  and  _262
REMARK  109  A    between atoms: _261  and  _264
REMARK  110  A    between atoms: _264  and  _265
REMARK  111  A    between atoms: _268  and  _270
REMARK  112  A    between atoms: _270  and  _271
REMARK  113  A    between atoms: _273  and  _275
REMARK  114  A    between atoms: _275  and  _276
REMARK  115  A    between atoms: _275  and  _278
REMARK  116  A    between atoms: _278  and  _279
REMARK  117  A    between atoms: _279  and  _280
REMARK  118  A    between atoms: _280  and  _281
REMARK  119  A    between atoms: _290  and  _292
REMARK  120  A    between atoms: _292  and  _293
REMARK  121  A    between atoms: _292  and  _295
REMARK  122  A    between atoms: _295  and  _296
REMARK  123  A    between atoms: _301  and  _303
REMARK  124  A    between atoms: _303  and  _304
REMARK  125  A    between atoms: _303  and  _306
REMARK  126  A    between atoms: _306  and  _307
REMARK  127  A    between atoms: _307  and  _308
REMARK  128  A    between atoms: _308  and  _309
REMARK  129  A    between atoms: _318  and  _320
REMARK  130  A    between atoms: _320  and  _321
REMARK  131  A    between atoms: _320  and  _323
REMARK  132  A    between atoms: _323  and  _324
REMARK  133  A    between atoms: _327  and  _329
REMARK  134  A    between atoms: _329  and  _330
REMARK  135  A    between atoms: _329  and  _332
REMARK  136  A    between atoms: _332  and  _333
REMARK  137  A    between atoms: _336  and  _338
REMARK  138  A    between atoms: _338  and  _339
REMARK  139  A    between atoms: _338  and  _341
REMARK  140  A    between atoms: _341  and  _342
REMARK  141  A    between atoms: _345  and  _347
REMARK  142  A    between atoms: _347  and  _348
REMARK  143  A    between atoms: _347  and  _350
REMARK  144  A    between atoms: _350  and  _351
REMARK  145  A    between atoms: _354  and  _356
REMARK  146  A    between atoms: _356  and  _357
REMARK  147  A    between atoms: _359  and  _361
REMARK  148  A    between atoms: _361  and  _362
REMARK  149  A    between atoms: _365  and  _367
REMARK  150  A    between atoms: _367  and  _368
REMARK  151  A    between atoms: _367  and  _370
REMARK  152  A    between atoms: _370  and  _371
REMARK  153  A    between atoms: _374  and  _376
REMARK  154  A    between atoms: _376  and  _377
REMARK  155  A    between atoms: _376  and  _379
REMARK  156  A    between atoms: _379  and  _380
REMARK  157  A    between atoms: _383  and  _385
REMARK  158  A    between atoms: _385  and  _386
REMARK  159  A    between atoms: _385  and  _388
REMARK  160  A    between atoms: _388  and  _389
REMARK  161  A    between atoms: _392  and  _394
REMARK  162  A    between atoms: _394  and  _395
REMARK  163  A    between atoms: _394  and  _397
REMARK  164  A    between atoms: _400  and  _402
REMARK  165  A    between atoms: _402  and  _403
REMARK  166  A    between atoms: _402  and  _405
REMARK  167  A    between atoms: _405  and  _406
REMARK  168  A    between atoms: _406  and  _407
REMARK  169  A    between atoms: _407  and  _408
REMARK  170  A    between atoms: _408  and  _409
REMARK  171  A    between atoms: _413  and  _415
REMARK  172  A    between atoms: _415  and  _416
REMARK  173  A    between atoms: _415  and  _418
REMARK  174  A    between atoms: _418  and  _419
REMARK  175  A    between atoms: _419  and  _420
REMARK  176  A    between atoms: _422  and  _424
REMARK  177  A    between atoms: _424  and  _425
REMARK  178  A    between atoms: _424  and  _427
REMARK  179  A    between atoms: _427  and  _428
REMARK  180  A    between atoms: _431  and  _433
REMARK  181  A    between atoms: _433  and  _434
REMARK  182  A    between atoms: _436  and  _438
REMARK  183  A    between atoms: _438  and  _439
REMARK  184  A    between atoms: _441  and  _443
REMARK  185  A    between atoms: _443  and  _444
REMARK  186  A    between atoms: _443  and  _446
REMARK  187  A    between atoms: _446  and  _447
REMARK  188  A    between atoms: _450  and  _452
REMARK  189  A    between atoms: _452  and  _453
REMARK  190  A    between atoms: _455  and  _457
REMARK  191  A    between atoms: _457  and  _458
REMARK  192  A    between atoms: _460  and  _462
REMARK  193  A    between atoms: _462  and  _463
REMARK  194  A    between atoms: _462  and  _465
REMARK  195  A    between atoms: _465  and  _466
REMARK  196  A    between atoms: _472  and  _474
REMARK  197  A    between atoms: _474  and  _475
REMARK  198  A    between atoms: _474  and  _477
REMARK  199  A    between atoms: _477  and  _478
REMARK  200  A    between atoms: _481  and  _483
REMARK  201  A    between atoms: _483  and  _484
REMARK  202  A    between atoms: _483  and  _486
REMARK  203  A    between atoms: _489  and  _491
REMARK  204  A    between atoms: _491  and  _492
REMARK  205  A    between atoms: _491  and  _494
REMARK  206  A    between atoms: _494  and  _495
REMARK  207  A    between atoms: _499  and  _500
REMARK  208  A    between atoms: _505  and  _507
REMARK  209  A    between atoms: _507  and  _508
REMARK  210  A    between atoms: _507  and  _510
REMARK  211  A    between atoms: _510  and  _511
REMARK  212  A    between atoms: _515  and  _516
REMARK  213  A    between atoms: _521  and  _523
REMARK  214  A    between atoms: _523  and  _524
REMARK  215  A    between atoms: _523  and  _526
REMARK  216  A    between atoms: _529  and  _531
REMARK  217  A    between atoms: _531  and  _532
REMARK  218  A    between atoms: _531  and  _534
REMARK  219  A    between atoms: _534  and  _535
REMARK  220  A    between atoms: _540  and  _542
REMARK  221  A    between atoms: _542  and  _543
REMARK  222  A    between atoms: _542  and  _545
REMARK  223  A    between atoms: _545  and  _546
REMARK  224  A    between atoms: _549  and  _551
REMARK  225  A    between atoms: _551  and  _552
REMARK  226  A    between atoms: _551  and  _554
REMARK  227  A    between atoms: _554  and  _555
REMARK  228  A    between atoms: _558  and  _560
REMARK  229  A    between atoms: _560  and  _561
REMARK  230  A    between atoms: _563  and  _565
REMARK  231  A    between atoms: _565  and  _566
REMARK  232  A    between atoms: _565  and  _568
REMARK  233  A    between atoms: _568  and  _569
REMARK  234  A    between atoms: _569  and  _570
REMARK  235  A    between atoms: _570  and  _571
REMARK  236  A    between atoms: _580  and  _582
REMARK  237  A    between atoms: _582  and  _583
REMARK  238  A    between atoms: _582  and  _585
REMARK  239  A    between atoms: _585  and  _586
REMARK                            x       y       z     vdW  Elec       q    Type
REMARK                         _______ _______ _______ _____ _____    ______ ____
ROOT
ATOM      1  O   HOH     1       7.175  23.146   8.746  0.00  0.00    +0.000 OA
ENDROOT
TORSDOF 0
REMARK  Name = ../refined-set-2016/2aod/2aod_pocket.pdb
REMARK  239 active torsions:
REMARK  status: ('A' for Active; 'I' for Inactive)
REMARK    1  A    between atoms: _1  and  _3
REMARK    2  A    between atoms: _3  and  _4
REMARK    3  A    between atoms: _3  and  _6
REMARK    4  A    between atoms: _6  and  _7
REMARK    5  A    between atoms: _7  and  _8
REMARK    6  A    between atoms: _8  and  _9
REMARK    7  A    between atoms: _18  and  _20
REMARK    8  A    between atoms: _20  and  _21
REMARK    9  A    between atoms: _20  and  _23
REMARK   10  A    between atoms: _23  and  _24
REMARK   11  A    between atoms: _27  and  _29
REMARK   12  A    between atoms: _29  and  _30
REMARK   13  A    between atoms: _29  and  _32
REMARK   14  A    between atoms: _32  and  _33
REMARK   15  A    between atoms: _33  and  _34
REMARK   16  A    between atoms: _37  and  _39
REMARK   17  A    between atoms: _39  and  _40
REMARK   18  A    between atoms: _39  and  _42
REMARK   19  A    between atoms: _42  and  _43
REMARK   20  A    between atoms: _46  and  _48
REMARK   21  A    between atoms: _48  and  _49
REMARK   22  A    between atoms: _48  and  _51
REMARK   23  A    between atoms: _51  and  _52
REMARK   24  A    between atoms: _55  and  _57
REMARK   25  A    between atoms: _57  and  _58
REMARK   26  A    between atoms: _57  and  _60
REMARK   27  A    between atoms: _60  and  _61
REMARK   28  A    between atoms: _64  and  _66
REMARK   29  A    between atoms: _66  and  _67
REMARK   30  A    between atoms: _69  and  _71
REMARK   31  A    between atoms: _71  and  _72
REMARK   32  A    between atoms: _75  and  _77
REMARK   33  A    between atoms: _77  and  _78
REMARK   34  A    between atoms: _77  and  _80
REMARK   35  A    between atoms: _80  and  _81
REMARK   36  A    between atoms: _84  and  _86
REMARK   37  A    between atoms: _86  and  _87
REMARK   38  A    between atoms: _86  and  _89
REMARK   39  A    between atoms: _89  and  _90
REMARK   40  A    between atoms: _93  and  _95
REMARK   41  A    between atoms: _95  and  _96
REMARK   42  A    between atoms: _95  and  _98
REMARK   43  A    between atoms: _98  and  _99
REMARK   44  A    between atoms: _102  and  _104
REMARK   45  A    between atoms: _104  and  _105
REMARK   46  A    between atoms: _104  and  _107
REMARK   47  A    between atoms: _110  and  _112
REMARK   48  A    between atoms: _112  and  _113
REMARK   49  A    between atoms: _112  and  _115
REMARK   50  A    between atoms: _115  and  _116
REMARK   51  A    between atoms: _116  and  _117
REMARK   52  A    between atoms: _117  and  _118
REMARK   53  A    between atoms: _118  and  _119
REMARK   54  A    between atoms: _123  and  _125
REMARK   55  A    between atoms: _125  and  _126
REMARK   56  A    between atoms: _125  and  _128
REMARK   57  A    between atoms: _128  and  _129
REMARK   58  A    between atoms: _129  and  _130
REMARK   59  A    between atoms: _132  and  _134
REMARK   60  A    between atoms: _134  and  _135
REMARK   61  A    between atoms: _134  and  _137
REMARK   62  A    between atoms: _137  and  _138
REMARK   63  A    between atoms: _141  and  _143
REMARK   64  A    between atoms: _143  and  _144
REMARK   65  A    between atoms: _146  and  _148
REMARK   66  A    between atoms: _148  and  _149
REMARK   67  A    between atoms: _151  and  _153
REMARK   68  A    between atoms: _153  and  _154
REMARK   69  A    between atoms: _153  and  _156
REMARK   70  A    between atoms: _156  and  _157
REMARK   71  A    between atoms: _160  and  _162
REMARK   72  A    between atoms: _162  and  _163
REMARK   73  A    between atoms: _165  and  _167
REMARK   74  A    between atoms: _167  and  _168
REMARK   75  A    between atoms: _170  and  _172
REMARK   76  A    between atoms: _172  and  _173
REMARK   77  A    between atoms: _172  and  _175
REMARK   78  A    between atoms: _175  and  _176
REMARK   79  A    between atoms: _182  and  _184
REMARK   80  A    between atoms: _184  and  _185
REMARK   81  A    between atoms: _184  and  _187
REMARK   82  A    between atoms: _187  and  _188
REMARK   83  A    between atoms: _191  and  _193
REMARK   84  A    between atoms: _193  and  _194
REMARK   85  A    between atoms: _193  and  _196
REMARK   86  A    between atoms: _199  and  _201
REMARK   87  A    between atoms: _201  and  _202
REMARK   88  A    between atoms: _201  and  _204
REMARK   89  A    between atoms: _204  and  _205
REMARK   90  A    between atoms: _209  and  _210
REMARK   91  A    between atoms: _215  and  _217
REMARK   92  A    between atoms: _217  and  _218
REMARK   93  A    between atoms: _217  and  _220
REMARK   94  A    between atoms: _220  and  _221
REMARK   95  A    between atoms: _225  and  _226
REMARK   96  A    between atoms: _231  and  _233
REMARK   97  A    between atoms: _233  and  _234
REMARK   98  A    between atoms: _233  and  _236
REMARK   99  A    between atoms: _239  and  _241
REMARK  100  A    between atoms: _241  and  _242
REMARK  101  A    between atoms: _241  and  _244
REMARK  102  A    between atoms: _244  and  _245
REMARK  103  A    between atoms: _250  and  _252
REMARK  104  A    between atoms: _252  and  _253
REMARK  105  A    between atoms: _252  and  _255
REMARK  106  A    between atoms: _255  and  _256
REMARK  107  A    between atoms: _259  and  _261
REMARK  108  A    between atoms: _261  and  _262
REMARK  109  A    between atoms: _261  and  _264
REMARK  110  A    between atoms: _264  and  _265
REMARK  111  A    between atoms: _268  and  _270
REMARK  112  A    between atoms: _270  and  _271
REMARK  113  A    between atoms: _273  and  _275
REMARK  114  A    between atoms: _275  and  _276
REMARK  115  A    between atoms: _275  and  _278
REMARK  116  A    between atoms: _278  and  _279
REMARK  117  A    between atoms: _279  and  _280
REMARK  118  A    between atoms: _280  and  _281
REMARK  119  A    between atoms: _290  and  _292
REMARK  120  A    between atoms: _292  and  _293
REMARK  121  A    between atoms: _292  and  _295
REMARK  122  A    between atoms: _295  and  _296
REMARK  123  A    between atoms: _301  and  _303
REMARK  124  A    between atoms: _303  and  _304
REMARK  125  A    between atoms: _303  and  _306
REMARK  126  A    between atoms: _306  and  _307
REMARK  127  A    between atoms: _307  and  _308
REMARK  128  A    between atoms: _308  and  _309
REMARK  129  A    between atoms: _318  and  _320
REMARK  130  A    between atoms: _320  and  _321
REMARK  131  A    between atoms: _320  and  _323
REMARK  132  A    between atoms: _323  and  _324
REMARK  133  A    between atoms: _327  and  _329
REMARK  134  A    between atoms: _329  and  _330
REMARK  135  A    between atoms: _329  and  _332
REMARK  136  A    between atoms: _332  and  _333
REMARK  137  A    between atoms: _336  and  _338
REMARK  138  A    between atoms: _338  and  _339
REMARK  139  A    between atoms: _338  and  _341
REMARK  140  A    between atoms: _341  and  _342
REMARK  141  A    between atoms: _345  and  _347
REMARK  142  A    between atoms: _347  and  _348
REMARK  143  A    between atoms: _347  and  _350
REMARK  144  A    between atoms: _350  and  _351
REMARK  145  A    between atoms: _354  and  _356
REMARK  146  A    between atoms: _356  and  _357
REMARK  147  A    between atoms: _359  and  _361
REMARK  148  A    between atoms: _361  and  _362
REMARK  149  A    between atoms: _365  and  _367
REMARK  150  A    between atoms: _367  and  _368
REMARK  151  A    between atoms: _367  and  _370
REMARK  152  A    between atoms: _370  and  _371
REMARK  153  A    between atoms: _374  and  _376
REMARK  154  A    between atoms: _376  and  _377
REMARK  155  A    between atoms: _376  and  _379
REMARK  156  A    between atoms: _379  and  _380
REMARK  157  A    between atoms: _383  and  _385
REMARK  158  A    between atoms: _385  and  _386
REMARK  159  A    between atoms: _385  and  _388
REMARK  160  A    between atoms: _388  and  _389
REMARK  161  A    between atoms: _392  and  _394
REMARK  162  A    between atoms: _394  and  _395
REMARK  163  A    between atoms: _394  and  _397
REMARK  164  A    between atoms: _400  and  _402
REMARK  165  A    between atoms: _402  and  _403
REMARK  166  A    between atoms: _402  and  _405
REMARK  167  A    between atoms: _405  and  _406
REMARK  168  A    between atoms: _406  and  _407
REMARK  169  A    between atoms: _407  and  _408
REMARK  170  A    between atoms: _408  and  _409
REMARK  171  A    between atoms: _413  and  _415
REMARK  172  A    between atoms: _415  and  _416
REMARK  173  A    between atoms: _415  and  _418
REMARK  174  A    between atoms: _418  and  _419
REMARK  175  A    between atoms: _419  and  _420
REMARK  176  A    between atoms: _422  and  _424
REMARK  177  A    between atoms: _424  and  _425
REMARK  178  A    between atoms: _424  and  _427
REMARK  179  A    between atoms: _427  and  _428
REMARK  180  A    between atoms: _431  and  _433
REMARK  181  A    between atoms: _433  and  _434
REMARK  182  A    between atoms: _436  and  _438
REMARK  183  A    between atoms: _438  and  _439
REMARK  184  A    between atoms: _441  and  _443
REMARK  185  A    between atoms: _443  and  _444
REMARK  186  A    between atoms: _443  and  _446
REMARK  187  A    between atoms: _446  and  _447
REMARK  188  A    between atoms: _450  and  _452
REMARK  189  A    between atoms: _452  and  _453
REMARK  190  A    between atoms: _455  and  _457
REMARK  191  A    between atoms: _457  and  _458
REMARK  192  A    between atoms: _460  and  _462
REMARK  193  A    between atoms: _462  and  _463
REMARK  194  A    between atoms: _462  and  _465
REMARK  195  A    between atoms: _465  and  _466
REMARK  196  A    between atoms: _472  and  _474
REMARK  197  A    between atoms: _474  and  _475
REMARK  198  A    between atoms: _474  and  _477
REMARK  199  A    between atoms: _477  and  _478
REMARK  200  A    between atoms: _481  and  _483
REMARK  201  A    between atoms: _483  and  _484
REMARK  202  A    between atoms: _483  and  _486
REMARK  203  A    between atoms: _489  and  _491
REMARK  204  A    between atoms: _491  and  _492
REMARK  205  A    between atoms: _491  and  _494
REMARK  206  A    between atoms: _494  and  _495
REMARK  207  A    between atoms: _499  and  _500
REMARK  208  A    between atoms: _505  and  _507
REMARK  209  A    between atoms: _507  and  _508
REMARK  210  A    between atoms: _507  and  _510
REMARK  211  A    between atoms: _510  and  _511
REMARK  212  A    between atoms: _515  and  _516
REMARK  213  A    between atoms: _521  and  _523
REMARK  214  A    between atoms: _523  and  _524
REMARK  215  A    between atoms: _523  and  _526
REMARK  216  A    between atoms: _529  and  _531
REMARK  217  A    between atoms: _531  and  _532
REMARK  218  A    between atoms: _531  and  _534
REMARK  219  A    between atoms: _534  and  _535
REMARK  220  A    between atoms: _540  and  _542
REMARK  221  A    between atoms: _542  and  _543
REMARK  222  A    between atoms: _542  and  _545
REMARK  223  A    between atoms: _545  and  _546
REMARK  224  A    between atoms: _549  and  _551
REMARK  225  A    between atoms: _551  and  _552
REMARK  226  A    between atoms: _551  and  _554
REMARK  227  A    between atoms: _554  and  _555
REMARK  228  A    between atoms: _558  and  _560
REMARK  229  A    between atoms: _560  and  _561
REMARK  230  A    between atoms: _563  and  _565
REMARK  231  A    between atoms: _565  and  _566
REMARK  232  A    between atoms: _565  and  _568
REMARK  233  A    between atoms: _568  and  _569
REMARK  234  A    between atoms: _569  and  _570
REMARK  235  A    between atoms: _570  and  _571
REMARK  236  A    between atoms: _580  and  _582
REMARK  237  A    between atoms: _582  and  _583
REMARK  238  A    between atoms: _582  and  _585
REMARK  239  A    between atoms: _585  and  _586
REMARK                            x       y       z     vdW  Elec       q    Type
REMARK                         _______ _______ _______ _____ _____    ______ ____
ROOT
ATOM      1  O   HOH     1       8.903  20.857   7.830  0.00  0.00    +0.000 OA
ENDROOT
TORSDOF 0
REMARK  Name = ../refined-set-2016/2aod/2aod_pocket.pdb
REMARK  239 active torsions:
REMARK  status: ('A' for Active; 'I' for Inactive)
REMARK    1  A    between atoms: _1  and  _3
REMARK    2  A    between atoms: _3  and  _4
REMARK    3  A    between atoms: _3  and  _6
REMARK    4  A    between atoms: _6  and  _7
REMARK    5  A    between atoms: _7  and  _8
REMARK    6  A    between atoms: _8  and  _9
REMARK    7  A    between atoms: _18  and  _20
REMARK    8  A    between atoms: _20  and  _21
REMARK    9  A    between atoms: _20  and  _23
REMARK   10  A    between atoms: _23  and  _24
REMARK   11  A    between atoms: _27  and  _29
REMARK   12  A    between atoms: _29  and  _30
REMARK   13  A    between atoms: _29  and  _32
REMARK   14  A    between atoms: _32  and  _33
REMARK   15  A    between atoms: _33  and  _34
REMARK   16  A    between atoms: _37  and  _39
REMARK   17  A    between atoms: _39  and  _40
REMARK   18  A    between atoms: _39  and  _42
REMARK   19  A    between atoms: _42  and  _43
REMARK   20  A    between atoms: _46  and  _48
REMARK   21  A    between atoms: _48  and  _49
REMARK   22  A    between atoms: _48  and  _51
REMARK   23  A    between atoms: _51  and  _52
REMARK   24  A    between atoms: _55  and  _57
REMARK   25  A    between atoms: _57  and  _58
REMARK   26  A    between atoms: _57  and  _60
REMARK   27  A    between atoms: _60  and  _61
REMARK   28  A    between atoms: _64  and  _66
REMARK   29  A    between atoms: _66  and  _67
REMARK   30  A    between atoms: _69  and  _71
REMARK   31  A    between atoms: _71  and  _72
REMARK   32  A    between atoms: _75  and  _77
REMARK   33  A    between atoms: _77  and  _78
REMARK   34  A    between atoms: _77  and  _80
REMARK   35  A    between atoms: _80  and  _81
REMARK   36  A    between atoms: _84  and  _86
REMARK   37  A    between atoms: _86  and  _87
REMARK   38  A    between atoms: _86  and  _89
REMARK   39  A    between atoms: _89  and  _90
REMARK   40  A    between atoms: _93  and  _95
REMARK   41  A    between atoms: _95  and  _96
REMARK   42  A    between atoms: _95  and  _98
REMARK   43  A    between atoms: _98  and  _99
REMARK   44  A    between atoms: _102  and  _104
REMARK   45  A    between atoms: _104  and  _105
REMARK   46  A    between atoms: _104  and  _107
REMARK   47  A    between atoms: _110  and  _112
REMARK   48  A    between atoms: _112  and  _113
REMARK   49  A    between atoms: _112  and  _115
REMARK   50  A    between atoms: _115  and  _116
REMARK   51  A    between atoms: _116  and  _117
REMARK   52  A    between atoms: _117  and  _118
REMARK   53  A    between atoms: _118  and  _119
REMARK   54  A    between atoms: _123  and  _125
REMARK   55  A    between atoms: _125  and  _126
REMARK   56  A    between atoms: _125  and  _128
REMARK   57  A    between atoms: _128  and  _129
REMARK   58  A    between atoms: _129  and  _130
REMARK   59  A    between atoms: _132  and  _134
REMARK   60  A    between atoms: _134  and  _135
REMARK   61  A    between atoms: _134  and  _137
REMARK   62  A    between atoms: _137  and  _138
REMARK   63  A    between atoms: _141  and  _143
REMARK   64  A    between atoms: _143  and  _144
REMARK   65  A    between atoms: _146  and  _148
REMARK   66  A    between atoms: _148  and  _149
REMARK   67  A    between atoms: _151  and  _153
REMARK   68  A    between atoms: _153  and  _154
REMARK   69  A    between atoms: _153  and  _156
REMARK   70  A    between atoms: _156  and  _157
REMARK   71  A    between atoms: _160  and  _162
REMARK   72  A    between atoms: _162  and  _163
REMARK   73  A    between atoms: _165  and  _167
REMARK   74  A    between atoms: _167  and  _168
REMARK   75  A    between atoms: _170  and  _172
REMARK   76  A    between atoms: _172  and  _173
REMARK   77  A    between atoms: _172  and  _175
REMARK   78  A    between atoms: _175  and  _176
REMARK   79  A    between atoms: _182  and  _184
REMARK   80  A    between atoms: _184  and  _185
REMARK   81  A    between atoms: _184  and  _187
REMARK   82  A    between atoms: _187  and  _188
REMARK   83  A    between atoms: _191  and  _193
REMARK   84  A    between atoms: _193  and  _194
REMARK   85  A    between atoms: _193  and  _196
REMARK   86  A    between atoms: _199  and  _201
REMARK   87  A    between atoms: _201  and  _202
REMARK   88  A    between atoms: _201  and  _204
REMARK   89  A    between atoms: _204  and  _205
REMARK   90  A    between atoms: _209  and  _210
REMARK   91  A    between atoms: _215  and  _217
REMARK   92  A    between atoms: _217  and  _218
REMARK   93  A    between atoms: _217  and  _220
REMARK   94  A    between atoms: _220  and  _221
REMARK   95  A    between atoms: _225  and  _226
REMARK   96  A    between atoms: _231  and  _233
REMARK   97  A    between atoms: _233  and  _234
REMARK   98  A    between atoms: _233  and  _236
REMARK   99  A    between atoms: _239  and  _241
REMARK  100  A    between atoms: _241  and  _242
REMARK  101  A    between atoms: _241  and  _244
REMARK  102  A    between atoms: _244  and  _245
REMARK  103  A    between atoms: _250  and  _252
REMARK  104  A    between atoms: _252  and  _253
REMARK  105  A    between atoms: _252  and  _255
REMARK  106  A    between atoms: _255  and  _256
REMARK  107  A    between atoms: _259  and  _261
REMARK  108  A    between atoms: _261  and  _262
REMARK  109  A    between atoms: _261  and  _264
REMARK  110  A    between atoms: _264  and  _265
REMARK  111  A    between atoms: _268  and  _270
REMARK  112  A    between atoms: _270  and  _271
REMARK  113  A    between atoms: _273  and  _275
REMARK  114  A    between atoms: _275  and  _276
REMARK  115  A    between atoms: _275  and  _278
REMARK  116  A    between atoms: _278  and  _279
REMARK  117  A    between atoms: _279  and  _280
REMARK  118  A    between atoms: _280  and  _281
REMARK  119  A    between atoms: _290  and  _292
REMARK  120  A    between atoms: _292  and  _293
REMARK  121  A    between atoms: _292  and  _295
REMARK  122  A    between atoms: _295  and  _296
REMARK  123  A    between atoms: _301  and  _303
REMARK  124  A    between atoms: _303  and  _304
REMARK  125  A    between atoms: _303  and  _306
REMARK  126  A    between atoms: _306  and  _307
REMARK  127  A    between atoms: _307  and  _308
REMARK  128  A    between atoms: _308  and  _309
REMARK  129  A    between atoms: _318  and  _320
REMARK  130  A    between atoms: _320  and  _321
REMARK  131  A    between atoms: _320  and  _323
REMARK  132  A    between atoms: _323  and  _324
REMARK  133  A    between atoms: _327  and  _329
REMARK  134  A    between atoms: _329  and  _330
REMARK  135  A    between atoms: _329  and  _332
REMARK  136  A    between atoms: _332  and  _333
REMARK  137  A    between atoms: _336  and  _338
REMARK  138  A    between atoms: _338  and  _339
REMARK  139  A    between atoms: _338  and  _341
REMARK  140  A    between atoms: _341  and  _342
REMARK  141  A    between atoms: _345  and  _347
REMARK  142  A    between atoms: _347  and  _348
REMARK  143  A    between atoms: _347  and  _350
REMARK  144  A    between atoms: _350  and  _351
REMARK  145  A    between atoms: _354  and  _356
REMARK  146  A    between atoms: _356  and  _357
REMARK  147  A    between atoms: _359  and  _361
REMARK  148  A    between atoms: _361  and  _362
REMARK  149  A    between atoms: _365  and  _367
REMARK  150  A    between atoms: _367  and  _368
REMARK  151  A    between atoms: _367  and  _370
REMARK  152  A    between atoms: _370  and  _371
REMARK  153  A    between atoms: _374  and  _376
REMARK  154  A    between atoms: _376  and  _377
REMARK  155  A    between atoms: _376  and  _379
REMARK  156  A    between atoms: _379  and  _380
REMARK  157  A    between atoms: _383  and  _385
REMARK  158  A    between atoms: _385  and  _386
REMARK  159  A    between atoms: _385  and  _388
REMARK  160  A    between atoms: _388  and  _389
REMARK  161  A    between atoms: _392  and  _394
REMARK  162  A    between atoms: _394  and  _395
REMARK  163  A    between atoms: _394  and  _397
REMARK  164  A    between atoms: _400  and  _402
REMARK  165  A    between atoms: _402  and  _403
REMARK  166  A    between atoms: _402  and  _405
REMARK  167  A    between atoms: _405  and  _406
REMARK  168  A    between atoms: _406  and  _407
REMARK  169  A    between atoms: _407  and  _408
REMARK  170  A    between atoms: _408  and  _409
REMARK  171  A    between atoms: _413  and  _415
REMARK  172  A    between atoms: _415  and  _416
REMARK  173  A    between atoms: _415  and  _418
REMARK  174  A    between atoms: _418  and  _419
REMARK  175  A    between atoms: _419  and  _420
REMARK  176  A    between atoms: _422  and  _424
REMARK  177  A    between atoms: _424  and  _425
REMARK  178  A    between atoms: _424  and  _427
REMARK  179  A    between atoms: _427  and  _428
REMARK  180  A    between atoms: _431  and  _433
REMARK  181  A    between atoms: _433  and  _434
REMARK  182  A    between atoms: _436  and  _438
REMARK  183  A    between atoms: _438  and  _439
REMARK  184  A    between atoms: _441  and  _443
REMARK  185  A    between atoms: _443  and  _444
REMARK  186  A    between atoms: _443  and  _446
REMARK  187  A    between atoms: _446  and  _447
REMARK  188  A    between atoms: _450  and  _452
REMARK  189  A    between atoms: _452  and  _453
REMARK  190  A    between atoms: _455  and  _457
REMARK  191  A    between atoms: _457  and  _458
REMARK  192  A    between atoms: _460  and  _462
REMARK  193  A    between atoms: _462  and  _463
REMARK  194  A    between atoms: _462  and  _465
REMARK  195  A    between atoms: _465  and  _466
REMARK  196  A    between atoms: _472  and  _474
REMARK  197  A    between atoms: _474  and  _475
REMARK  198  A    between atoms: _474  and  _477
REMARK  199  A    between atoms: _477  and  _478
REMARK  200  A    between atoms: _481  and  _483
REMARK  201  A    between atoms: _483  and  _484
REMARK  202  A    between atoms: _483  and  _486
REMARK  203  A    between atoms: _489  and  _491
REMARK  204  A    between atoms: _491  and  _492
REMARK  205  A    between atoms: _491  and  _494
REMARK  206  A    between atoms: _494  and  _495
REMARK  207  A    between atoms: _499  and  _500
REMARK  208  A    between atoms: _505  and  _507
REMARK  209  A    between atoms: _507  and  _508
REMARK  210  A    between atoms: _507  and  _510
REMARK  211  A    between atoms: _510  and  _511
REMARK  212  A    between atoms: _515  and  _516
REMARK  213  A    between atoms: _521  and  _523
REMARK  214  A    between atoms: _523  and  _524
REMARK  215  A    between atoms: _523  and  _526
REMARK  216  A    between atoms: _529  and  _531
REMARK  217  A    between atoms: _531  and  _532
REMARK  218  A    between atoms: _531  and  _534
REMARK  219  A    between atoms: _534  and  _535
REMARK  220  A    between atoms: _540  and  _542
REMARK  221  A    between atoms: _542  and  _543
REMARK  222  A    between atoms: _542  and  _545
REMARK  223  A    between atoms: _545  and  _546
REMARK  224  A    between atoms: _549  and  _551
REMARK  225  A    between atoms: _551  and  _552
REMARK  226  A    between atoms: _551  and  _554
REMARK  227  A    between atoms: _554  and  _555
REMARK  228  A    between atoms: _558  and  _560
REMARK  229  A    between atoms: _560  and  _561
REMARK  230  A    between atoms: _563  and  _565
REMARK  231  A    between atoms: _565  and  _566
REMARK  232  A    between atoms: _565  and  _568
REMARK  233  A    between atoms: _568  and  _569
REMARK  234  A    between atoms: _569  and  _570
REMARK  235  A    between atoms: _570  and  _571
REMARK  236  A    between atoms: _580  and  _582
REMARK  237  A    between atoms: _582  and  _583
REMARK  238  A    between atoms: _582  and  _585
REMARK  239  A    between atoms: _585  and  _586
REMARK                            x       y       z     vdW  Elec       q    Type
REMARK                         _______ _______ _______ _____ _____    ______ ____
ROOT
ATOM      1  O   HOH     1      27.636  31.950  15.026  0.00  0.00    +0.000 OA
ENDROOT
TORSDOF 0
REMARK  Name = ../refined-set-2016/2aod/2aod_pocket.pdb
REMARK  239 active torsions:
REMARK  status: ('A' for Active; 'I' for Inactive)
REMARK    1  A    between atoms: _1  and  _3
REMARK    2  A    between atoms: _3  and  _4
REMARK    3  A    between atoms: _3  and  _6
REMARK    4  A    between atoms: _6  and  _7
REMARK    5  A    between atoms: _7  and  _8
REMARK    6  A    between atoms: _8  and  _9
REMARK    7  A    between atoms: _18  and  _20
REMARK    8  A    between atoms: _20  and  _21
REMARK    9  A    between atoms: _20  and  _23
REMARK   10  A    between atoms: _23  and  _24
REMARK   11  A    between atoms: _27  and  _29
REMARK   12  A    between atoms: _29  and  _30
REMARK   13  A    between atoms: _29  and  _32
REMARK   14  A    between atoms: _32  and  _33
REMARK   15  A    between atoms: _33  and  _34
REMARK   16  A    between atoms: _37  and  _39
REMARK   17  A    between atoms: _39  and  _40
REMARK   18  A    between atoms: _39  and  _42
REMARK   19  A    between atoms: _42  and  _43
REMARK   20  A    between atoms: _46  and  _48
REMARK   21  A    between atoms: _48  and  _49
REMARK   22  A    between atoms: _48  and  _51
REMARK   23  A    between atoms: _51  and  _52
REMARK   24  A    between atoms: _55  and  _57
REMARK   25  A    between atoms: _57  and  _58
REMARK   26  A    between atoms: _57  and  _60
REMARK   27  A    between atoms: _60  and  _61
REMARK   28  A    between atoms: _64  and  _66
REMARK   29  A    between atoms: _66  and  _67
REMARK   30  A    between atoms: _69  and  _71
REMARK   31  A    between atoms: _71  and  _72
REMARK   32  A    between atoms: _75  and  _77
REMARK   33  A    between atoms: _77  and  _78
REMARK   34  A    between atoms: _77  and  _80
REMARK   35  A    between atoms: _80  and  _81
REMARK   36  A    between atoms: _84  and  _86
REMARK   37  A    between atoms: _86  and  _87
REMARK   38  A    between atoms: _86  and  _89
REMARK   39  A    between atoms: _89  and  _90
REMARK   40  A    between atoms: _93  and  _95
REMARK   41  A    between atoms: _95  and  _96
REMARK   42  A    between atoms: _95  and  _98
REMARK   43  A    between atoms: _98  and  _99
REMARK   44  A    between atoms: _102  and  _104
REMARK   45  A    between atoms: _104  and  _105
REMARK   46  A    between atoms: _104  and  _107
REMARK   47  A    between atoms: _110  and  _112
REMARK   48  A    between atoms: _112  and  _113
REMARK   49  A    between atoms: _112  and  _115
REMARK   50  A    between atoms: _115  and  _116
REMARK   51  A    between atoms: _116  and  _117
REMARK   52  A    between atoms: _117  and  _118
REMARK   53  A    between atoms: _118  and  _119
REMARK   54  A    between atoms: _123  and  _125
REMARK   55  A    between atoms: _125  and  _126
REMARK   56  A    between atoms: _125  and  _128
REMARK   57  A    between atoms: _128  and  _129
REMARK   58  A    between atoms: _129  and  _130
REMARK   59  A    between atoms: _132  and  _134
REMARK   60  A    between atoms: _134  and  _135
REMARK   61  A    between atoms: _134  and  _137
REMARK   62  A    between atoms: _137  and  _138
REMARK   63  A    between atoms: _141  and  _143
REMARK   64  A    between atoms: _143  and  _144
REMARK   65  A    between atoms: _146  and  _148
REMARK   66  A    between atoms: _148  and  _149
REMARK   67  A    between atoms: _151  and  _153
REMARK   68  A    between atoms: _153  and  _154
REMARK   69  A    between atoms: _153  and  _156
REMARK   70  A    between atoms: _156  and  _157
REMARK   71  A    between atoms: _160  and  _162
REMARK   72  A    between atoms: _162  and  _163
REMARK   73  A    between atoms: _165  and  _167
REMARK   74  A    between atoms: _167  and  _168
REMARK   75  A    between atoms: _170  and  _172
REMARK   76  A    between atoms: _172  and  _173
REMARK   77  A    between atoms: _172  and  _175
REMARK   78  A    between atoms: _175  and  _176
REMARK   79  A    between atoms: _182  and  _184
REMARK   80  A    between atoms: _184  and  _185
REMARK   81  A    between atoms: _184  and  _187
REMARK   82  A    between atoms: _187  and  _188
REMARK   83  A    between atoms: _191  and  _193
REMARK   84  A    between atoms: _193  and  _194
REMARK   85  A    between atoms: _193  and  _196
REMARK   86  A    between atoms: _199  and  _201
REMARK   87  A    between atoms: _201  and  _202
REMARK   88  A    between atoms: _201  and  _204
REMARK   89  A    between atoms: _204  and  _205
REMARK   90  A    between atoms: _209  and  _210
REMARK   91  A    between atoms: _215  and  _217
REMARK   92  A    between atoms: _217  and  _218
REMARK   93  A    between atoms: _217  and  _220
REMARK   94  A    between atoms: _220  and  _221
REMARK   95  A    between atoms: _225  and  _226
REMARK   96  A    between atoms: _231  and  _233
REMARK   97  A    between atoms: _233  and  _234
REMARK   98  A    between atoms: _233  and  _236
REMARK   99  A    between atoms: _239  and  _241
REMARK  100  A    between atoms: _241  and  _242
REMARK  101  A    between atoms: _241  and  _244
REMARK  102  A    between atoms: _244  and  _245
REMARK  103  A    between atoms: _250  and  _252
REMARK  104  A    between atoms: _252  and  _253
REMARK  105  A    between atoms: _252  and  _255
REMARK  106  A    between atoms: _255  and  _256
REMARK  107  A    between atoms: _259  and  _261
REMARK  108  A    between atoms: _261  and  _262
REMARK  109  A    between atoms: _261  and  _264
REMARK  110  A    between atoms: _264  and  _265
REMARK  111  A    between atoms: _268  and  _270
REMARK  112  A    between atoms: _270  and  _271
REMARK  113  A    between atoms: _273  and  _275
REMARK  114  A    between atoms: _275  and  _276
REMARK  115  A    between atoms: _275  and  _278
REMARK  116  A    between atoms: _278  and  _279
REMARK  117  A    between atoms: _279  and  _280
REMARK  118  A    between atoms: _280  and  _281
REMARK  119  A    between atoms: _290  and  _292
REMARK  120  A    between atoms: _292  and  _293
REMARK  121  A    between atoms: _292  and  _295
REMARK  122  A    between atoms: _295  and  _296
REMARK  123  A    between atoms: _301  and  _303
REMARK  124  A    between atoms: _303  and  _304
REMARK  125  A    between atoms: _303  and  _306
REMARK  126  A    between atoms: _306  and  _307
REMARK  127  A    between atoms: _307  and  _308
REMARK  128  A    between atoms: _308  and  _309
REMARK  129  A    between atoms: _318  and  _320
REMARK  130  A    between atoms: _320  and  _321
REMARK  131  A    between atoms: _320  and  _323
REMARK  132  A    between atoms: _323  and  _324
REMARK  133  A    between atoms: _327  and  _329
REMARK  134  A    between atoms: _329  and  _330
REMARK  135  A    between atoms: _329  and  _332
REMARK  136  A    between atoms: _332  and  _333
REMARK  137  A    between atoms: _336  and  _338
REMARK  138  A    between atoms: _338  and  _339
REMARK  139  A    between atoms: _338  and  _341
REMARK  140  A    between atoms: _341  and  _342
REMARK  141  A    between atoms: _345  and  _347
REMARK  142  A    between atoms: _347  and  _348
REMARK  143  A    between atoms: _347  and  _350
REMARK  144  A    between atoms: _350  and  _351
REMARK  145  A    between atoms: _354  and  _356
REMARK  146  A    between atoms: _356  and  _357
REMARK  147  A    between atoms: _359  and  _361
REMARK  148  A    between atoms: _361  and  _362
REMARK  149  A    between atoms: _365  and  _367
REMARK  150  A    between atoms: _367  and  _368
REMARK  151  A    between atoms: _367  and  _370
REMARK  152  A    between atoms: _370  and  _371
REMARK  153  A    between atoms: _374  and  _376
REMARK  154  A    between atoms: _376  and  _377
REMARK  155  A    between atoms: _376  and  _379
REMARK  156  A    between atoms: _379  and  _380
REMARK  157  A    between atoms: _383  and  _385
REMARK  158  A    between atoms: _385  and  _386
REMARK  159  A    between atoms: _385  and  _388
REMARK  160  A    between atoms: _388  and  _389
REMARK  161  A    between atoms: _392  and  _394
REMARK  162  A    between atoms: _394  and  _395
REMARK  163  A    between atoms: _394  and  _397
REMARK  164  A    between atoms: _400  and  _402
REMARK  165  A    between atoms: _402  and  _403
REMARK  166  A    between atoms: _402  and  _405
REMARK  167  A    between atoms: _405  and  _406
REMARK  168  A    between atoms: _406  and  _407
REMARK  169  A    between atoms: _407  and  _408
REMARK  170  A    between atoms: _408  and  _409
REMARK  171  A    between atoms: _413  and  _415
REMARK  172  A    between atoms: _415  and  _416
REMARK  173  A    between atoms: _415  and  _418
REMARK  174  A    between atoms: _418  and  _419
REMARK  175  A    between atoms: _419  and  _420
REMARK  176  A    between atoms: _422  and  _424
REMARK  177  A    between atoms: _424  and  _425
REMARK  178  A    between atoms: _424  and  _427
REMARK  179  A    between atoms: _427  and  _428
REMARK  180  A    between atoms: _431  and  _433
REMARK  181  A    between atoms: _433  and  _434
REMARK  182  A    between atoms: _436  and  _438
REMARK  183  A    between atoms: _438  and  _439
REMARK  184  A    between atoms: _441  and  _443
REMARK  185  A    between atoms: _443  and  _444
REMARK  186  A    between atoms: _443  and  _446
REMARK  187  A    between atoms: _446  and  _447
REMARK  188  A    between atoms: _450  and  _452
REMARK  189  A    between atoms: _452  and  _453
REMARK  190  A    between atoms: _455  and  _457
REMARK  191  A    between atoms: _457  and  _458
REMARK  192  A    between atoms: _460  and  _462
REMARK  193  A    between atoms: _462  and  _463
REMARK  194  A    between atoms: _462  and  _465
REMARK  195  A    between atoms: _465  and  _466
REMARK  196  A    between atoms: _472  and  _474
REMARK  197  A    between atoms: _474  and  _475
REMARK  198  A    between atoms: _474  and  _477
REMARK  199  A    between atoms: _477  and  _478
REMARK  200  A    between atoms: _481  and  _483
REMARK  201  A    between atoms: _483  and  _484
REMARK  202  A    between atoms: _483  and  _486
REMARK  203  A    between atoms: _489  and  _491
REMARK  204  A    between atoms: _491  and  _492
REMARK  205  A    between atoms: _491  and  _494
REMARK  206  A    between atoms: _494  and  _495
REMARK  207  A    between atoms: _499  and  _500
REMARK  208  A    between atoms: _505  and  _507
REMARK  209  A    between atoms: _507  and  _508
REMARK  210  A    between atoms: _507  and  _510
REMARK  211  A    between atoms: _510  and  _511
REMARK  212  A    between atoms: _515  and  _516
REMARK  213  A    between atoms: _521  and  _523
REMARK  214  A    between atoms: _523  and  _524
REMARK  215  A    between atoms: _523  and  _526
REMARK  216  A    between atoms: _529  and  _531
REMARK  217  A    between atoms: _531  and  _532
REMARK  218  A    between atoms: _531  and  _534
REMARK  219  A    between atoms: _534  and  _535
REMARK  220  A    between atoms: _540  and  _542
REMARK  221  A    between atoms: _542  and  _543
REMARK  222  A    between atoms: _542  and  _545
REMARK  223  A    between atoms: _545  and  _546
REMARK  224  A    between atoms: _549  and  _551
REMARK  225  A    between atoms: _551  and  _552
REMARK  226  A    between atoms: _551  and  _554
REMARK  227  A    between atoms: _554  and  _555
REMARK  228  A    between atoms: _558  and  _560
REMARK  229  A    between atoms: _560  and  _561
REMARK  230  A    between atoms: _563  and  _565
REMARK  231  A    between atoms: _565  and  _566
REMARK  232  A    between atoms: _565  and  _568
REMARK  233  A    between atoms: _568  and  _569
REMARK  234  A    between atoms: _569  and  _570
REMARK  235  A    between atoms: _570  and  _571
REMARK  236  A    between atoms: _580  and  _582
REMARK  237  A    between atoms: _582  and  _583
REMARK  238  A    between atoms: _582  and  _585
REMARK  239  A    between atoms: _585  and  _586
REMARK                            x       y       z     vdW  Elec       q    Type
REMARK                         _______ _______ _______ _____ _____    ______ ____
ROOT
ATOM      1  O   HOH     1      12.284  22.727   5.480  0.00  0.00    +0.000 OA
ENDROOT
TORSDOF 0
REMARK  Name = ../refined-set-2016/2aod/2aod_pocket.pdb
REMARK  239 active torsions:
REMARK  status: ('A' for Active; 'I' for Inactive)
REMARK    1  A    between atoms: _1  and  _3
REMARK    2  A    between atoms: _3  and  _4
REMARK    3  A    between atoms: _3  and  _6
REMARK    4  A    between atoms: _6  and  _7
REMARK    5  A    between atoms: _7  and  _8
REMARK    6  A    between atoms: _8  and  _9
REMARK    7  A    between atoms: _18  and  _20
REMARK    8  A    between atoms: _20  and  _21
REMARK    9  A    between atoms: _20  and  _23
REMARK   10  A    between atoms: _23  and  _24
REMARK   11  A    between atoms: _27  and  _29
REMARK   12  A    between atoms: _29  and  _30
REMARK   13  A    between atoms: _29  and  _32
REMARK   14  A    between atoms: _32  and  _33
REMARK   15  A    between atoms: _33  and  _34
REMARK   16  A    between atoms: _37  and  _39
REMARK   17  A    between atoms: _39  and  _40
REMARK   18  A    between atoms: _39  and  _42
REMARK   19  A    between atoms: _42  and  _43
REMARK   20  A    between atoms: _46  and  _48
REMARK   21  A    between atoms: _48  and  _49
REMARK   22  A    between atoms: _48  and  _51
REMARK   23  A    between atoms: _51  and  _52
REMARK   24  A    between atoms: _55  and  _57
REMARK   25  A    between atoms: _57  and  _58
REMARK   26  A    between atoms: _57  and  _60
REMARK   27  A    between atoms: _60  and  _61
REMARK   28  A    between atoms: _64  and  _66
REMARK   29  A    between atoms: _66  and  _67
REMARK   30  A    between atoms: _69  and  _71
REMARK   31  A    between atoms: _71  and  _72
REMARK   32  A    between atoms: _75  and  _77
REMARK   33  A    between atoms: _77  and  _78
REMARK   34  A    between atoms: _77  and  _80
REMARK   35  A    between atoms: _80  and  _81
REMARK   36  A    between atoms: _84  and  _86
REMARK   37  A    between atoms: _86  and  _87
REMARK   38  A    between atoms: _86  and  _89
REMARK   39  A    between atoms: _89  and  _90
REMARK   40  A    between atoms: _93  and  _95
REMARK   41  A    between atoms: _95  and  _96
REMARK   42  A    between atoms: _95  and  _98
REMARK   43  A    between atoms: _98  and  _99
REMARK   44  A    between atoms: _102  and  _104
REMARK   45  A    between atoms: _104  and  _105
REMARK   46  A    between atoms: _104  and  _107
REMARK   47  A    between atoms: _110  and  _112
REMARK   48  A    between atoms: _112  and  _113
REMARK   49  A    between atoms: _112  and  _115
REMARK   50  A    between atoms: _115  and  _116
REMARK   51  A    between atoms: _116  and  _117
REMARK   52  A    between atoms: _117  and  _118
REMARK   53  A    between atoms: _118  and  _119
REMARK   54  A    between atoms: _123  and  _125
REMARK   55  A    between atoms: _125  and  _126
REMARK   56  A    between atoms: _125  and  _128
REMARK   57  A    between atoms: _128  and  _129
REMARK   58  A    between atoms: _129  and  _130
REMARK   59  A    between atoms: _132  and  _134
REMARK   60  A    between atoms: _134  and  _135
REMARK   61  A    between atoms: _134  and  _137
REMARK   62  A    between atoms: _137  and  _138
REMARK   63  A    between atoms: _141  and  _143
REMARK   64  A    between atoms: _143  and  _144
REMARK   65  A    between atoms: _146  and  _148
REMARK   66  A    between atoms: _148  and  _149
REMARK   67  A    between atoms: _151  and  _153
REMARK   68  A    between atoms: _153  and  _154
REMARK   69  A    between atoms: _153  and  _156
REMARK   70  A    between atoms: _156  and  _157
REMARK   71  A    between atoms: _160  and  _162
REMARK   72  A    between atoms: _162  and  _163
REMARK   73  A    between atoms: _165  and  _167
REMARK   74  A    between atoms: _167  and  _168
REMARK   75  A    between atoms: _170  and  _172
REMARK   76  A    between atoms: _172  and  _173
REMARK   77  A    between atoms: _172  and  _175
REMARK   78  A    between atoms: _175  and  _176
REMARK   79  A    between atoms: _182  and  _184
REMARK   80  A    between atoms: _184  and  _185
REMARK   81  A    between atoms: _184  and  _187
REMARK   82  A    between atoms: _187  and  _188
REMARK   83  A    between atoms: _191  and  _193
REMARK   84  A    between atoms: _193  and  _194
REMARK   85  A    between atoms: _193  and  _196
REMARK   86  A    between atoms: _199  and  _201
REMARK   87  A    between atoms: _201  and  _202
REMARK   88  A    between atoms: _201  and  _204
REMARK   89  A    between atoms: _204  and  _205
REMARK   90  A    between atoms: _209  and  _210
REMARK   91  A    between atoms: _215  and  _217
REMARK   92  A    between atoms: _217  and  _218
REMARK   93  A    between atoms: _217  and  _220
REMARK   94  A    between atoms: _220  and  _221
REMARK   95  A    between atoms: _225  and  _226
REMARK   96  A    between atoms: _231  and  _233
REMARK   97  A    between atoms: _233  and  _234
REMARK   98  A    between atoms: _233  and  _236
REMARK   99  A    between atoms: _239  and  _241
REMARK  100  A    between atoms: _241  and  _242
REMARK  101  A    between atoms: _241  and  _244
REMARK  102  A    between atoms: _244  and  _245
REMARK  103  A    between atoms: _250  and  _252
REMARK  104  A    between atoms: _252  and  _253
REMARK  105  A    between atoms: _252  and  _255
REMARK  106  A    between atoms: _255  and  _256
REMARK  107  A    between atoms: _259  and  _261
REMARK  108  A    between atoms: _261  and  _262
REMARK  109  A    between atoms: _261  and  _264
REMARK  110  A    between atoms: _264  and  _265
REMARK  111  A    between atoms: _268  and  _270
REMARK  112  A    between atoms: _270  and  _271
REMARK  113  A    between atoms: _273  and  _275
REMARK  114  A    between atoms: _275  and  _276
REMARK  115  A    between atoms: _275  and  _278
REMARK  116  A    between atoms: _278  and  _279
REMARK  117  A    between atoms: _279  and  _280
REMARK  118  A    between atoms: _280  and  _281
REMARK  119  A    between atoms: _290  and  _292
REMARK  120  A    between atoms: _292  and  _293
REMARK  121  A    between atoms: _292  and  _295
REMARK  122  A    between atoms: _295  and  _296
REMARK  123  A    between atoms: _301  and  _303
REMARK  124  A    between atoms: _303  and  _304
REMARK  125  A    between atoms: _303  and  _306
REMARK  126  A    between atoms: _306  and  _307
REMARK  127  A    between atoms: _307  and  _308
REMARK  128  A    between atoms: _308  and  _309
REMARK  129  A    between atoms: _318  and  _320
REMARK  130  A    between atoms: _320  and  _321
REMARK  131  A    between atoms: _320  and  _323
REMARK  132  A    between atoms: _323  and  _324
REMARK  133  A    between atoms: _327  and  _329
REMARK  134  A    between atoms: _329  and  _330
REMARK  135  A    between atoms: _329  and  _332
REMARK  136  A    between atoms: _332  and  _333
REMARK  137  A    between atoms: _336  and  _338
REMARK  138  A    between atoms: _338  and  _339
REMARK  139  A    between atoms: _338  and  _341
REMARK  140  A    between atoms: _341  and  _342
REMARK  141  A    between atoms: _345  and  _347
REMARK  142  A    between atoms: _347  and  _348
REMARK  143  A    between atoms: _347  and  _350
REMARK  144  A    between atoms: _350  and  _351
REMARK  145  A    between atoms: _354  and  _356
REMARK  146  A    between atoms: _356  and  _357
REMARK  147  A    between atoms: _359  and  _361
REMARK  148  A    between atoms: _361  and  _362
REMARK  149  A    between atoms: _365  and  _367
REMARK  150  A    between atoms: _367  and  _368
REMARK  151  A    between atoms: _367  and  _370
REMARK  152  A    between atoms: _370  and  _371
REMARK  153  A    between atoms: _374  and  _376
REMARK  154  A    between atoms: _376  and  _377
REMARK  155  A    between atoms: _376  and  _379
REMARK  156  A    between atoms: _379  and  _380
REMARK  157  A    between atoms: _383  and  _385
REMARK  158  A    between atoms: _385  and  _386
REMARK  159  A    between atoms: _385  and  _388
REMARK  160  A    between atoms: _388  and  _389
REMARK  161  A    between atoms: _392  and  _394
REMARK  162  A    between atoms: _394  and  _395
REMARK  163  A    between atoms: _394  and  _397
REMARK  164  A    between atoms: _400  and  _402
REMARK  165  A    between atoms: _402  and  _403
REMARK  166  A    between atoms: _402  and  _405
REMARK  167  A    between atoms: _405  and  _406
REMARK  168  A    between atoms: _406  and  _407
REMARK  169  A    between atoms: _407  and  _408
REMARK  170  A    between atoms: _408  and  _409
REMARK  171  A    between atoms: _413  and  _415
REMARK  172  A    between atoms: _415  and  _416
REMARK  173  A    between atoms: _415  and  _418
REMARK  174  A    between atoms: _418  and  _419
REMARK  175  A    between atoms: _419  and  _420
REMARK  176  A    between atoms: _422  and  _424
REMARK  177  A    between atoms: _424  and  _425
REMARK  178  A    between atoms: _424  and  _427
REMARK  179  A    between atoms: _427  and  _428
REMARK  180  A    between atoms: _431  and  _433
REMARK  181  A    between atoms: _433  and  _434
REMARK  182  A    between atoms: _436  and  _438
REMARK  183  A    between atoms: _438  and  _439
REMARK  184  A    between atoms: _441  and  _443
REMARK  185  A    between atoms: _443  and  _444
REMARK  186  A    between atoms: _443  and  _446
REMARK  187  A    between atoms: _446  and  _447
REMARK  188  A    between atoms: _450  and  _452
REMARK  189  A    between atoms: _452  and  _453
REMARK  190  A    between atoms: _455  and  _457
REMARK  191  A    between atoms: _457  and  _458
REMARK  192  A    between atoms: _460  and  _462
REMARK  193  A    between atoms: _462  and  _463
REMARK  194  A    between atoms: _462  and  _465
REMARK  195  A    between atoms: _465  and  _466
REMARK  196  A    between atoms: _472  and  _474
REMARK  197  A    between atoms: _474  and  _475
REMARK  198  A    between atoms: _474  and  _477
REMARK  199  A    between atoms: _477  and  _478
REMARK  200  A    between atoms: _481  and  _483
REMARK  201  A    between atoms: _483  and  _484
REMARK  202  A    between atoms: _483  and  _486
REMARK  203  A    between atoms: _489  and  _491
REMARK  204  A    between atoms: _491  and  _492
REMARK  205  A    between atoms: _491  and  _494
REMARK  206  A    between atoms: _494  and  _495
REMARK  207  A    between atoms: _499  and  _500
REMARK  208  A    between atoms: _505  and  _507
REMARK  209  A    between atoms: _507  and  _508
REMARK  210  A    between atoms: _507  and  _510
REMARK  211  A    between atoms: _510  and  _511
REMARK  212  A    between atoms: _515  and  _516
REMARK  213  A    between atoms: _521  and  _523
REMARK  214  A    between atoms: _523  and  _524
REMARK  215  A    between atoms: _523  and  _526
REMARK  216  A    between atoms: _529  and  _531
REMARK  217  A    between atoms: _531  and  _532
REMARK  218  A    between atoms: _531  and  _534
REMARK  219  A    between atoms: _534  and  _535
REMARK  220  A    between atoms: _540  and  _542
REMARK  221  A    between atoms: _542  and  _543
REMARK  222  A    between atoms: _542  and  _545
REMARK  223  A    between atoms: _545  and  _546
REMARK  224  A    between atoms: _549  and  _551
REMARK  225  A    between atoms: _551  and  _552
REMARK  226  A    between atoms: _551  and  _554
REMARK  227  A    between atoms: _554  and  _555
REMARK  228  A    between atoms: _558  and  _560
REMARK  229  A    between atoms: _560  and  _561
REMARK  230  A    between atoms: _563  and  _565
REMARK  231  A    between atoms: _565  and  _566
REMARK  232  A    between atoms: _565  and  _568
REMARK  233  A    between atoms: _568  and  _569
REMARK  234  A    between atoms: _569  and  _570
REMARK  235  A    between atoms: _570  and  _571
REMARK  236  A    between atoms: _580  and  _582
REMARK  237  A    between atoms: _582  and  _583
REMARK  238  A    between atoms: _582  and  _585
REMARK  239  A    between atoms: _585  and  _586
REMARK                            x       y       z     vdW  Elec       q    Type
REMARK                         _______ _______ _______ _____ _____    ______ ____
ROOT
ATOM      1  O   HOH     1       5.241  17.088  11.802  0.00  0.00    +0.000 OA
ENDROOT
TORSDOF 0
REMARK  Name = ../refined-set-2016/2aod/2aod_pocket.pdb
REMARK  239 active torsions:
REMARK  status: ('A' for Active; 'I' for Inactive)
REMARK    1  A    between atoms: _1  and  _3
REMARK    2  A    between atoms: _3  and  _4
REMARK    3  A    between atoms: _3  and  _6
REMARK    4  A    between atoms: _6  and  _7
REMARK    5  A    between atoms: _7  and  _8
REMARK    6  A    between atoms: _8  and  _9
REMARK    7  A    between atoms: _18  and  _20
REMARK    8  A    between atoms: _20  and  _21
REMARK    9  A    between atoms: _20  and  _23
REMARK   10  A    between atoms: _23  and  _24
REMARK   11  A    between atoms: _27  and  _29
REMARK   12  A    between atoms: _29  and  _30
REMARK   13  A    between atoms: _29  and  _32
REMARK   14  A    between atoms: _32  and  _33
REMARK   15  A    between atoms: _33  and  _34
REMARK   16  A    between atoms: _37  and  _39
REMARK   17  A    between atoms: _39  and  _40
REMARK   18  A    between atoms: _39  and  _42
REMARK   19  A    between atoms: _42  and  _43
REMARK   20  A    between atoms: _46  and  _48
REMARK   21  A    between atoms: _48  and  _49
REMARK   22  A    between atoms: _48  and  _51
REMARK   23  A    between atoms: _51  and  _52
REMARK   24  A    between atoms: _55  and  _57
REMARK   25  A    between atoms: _57  and  _58
REMARK   26  A    between atoms: _57  and  _60
REMARK   27  A    between atoms: _60  and  _61
REMARK   28  A    between atoms: _64  and  _66
REMARK   29  A    between atoms: _66  and  _67
REMARK   30  A    between atoms: _69  and  _71
REMARK   31  A    between atoms: _71  and  _72
REMARK   32  A    between atoms: _75  and  _77
REMARK   33  A    between atoms: _77  and  _78
REMARK   34  A    between atoms: _77  and  _80
REMARK   35  A    between atoms: _80  and  _81
REMARK   36  A    between atoms: _84  and  _86
REMARK   37  A    between atoms: _86  and  _87
REMARK   38  A    between atoms: _86  and  _89
REMARK   39  A    between atoms: _89  and  _90
REMARK   40  A    between atoms: _93  and  _95
REMARK   41  A    between atoms: _95  and  _96
REMARK   42  A    between atoms: _95  and  _98
REMARK   43  A    between atoms: _98  and  _99
REMARK   44  A    between atoms: _102  and  _104
REMARK   45  A    between atoms: _104  and  _105
REMARK   46  A    between atoms: _104  and  _107
REMARK   47  A    between atoms: _110  and  _112
REMARK   48  A    between atoms: _112  and  _113
REMARK   49  A    between atoms: _112  and  _115
REMARK   50  A    between atoms: _115  and  _116
REMARK   51  A    between atoms: _116  and  _117
REMARK   52  A    between atoms: _117  and  _118
REMARK   53  A    between atoms: _118  and  _119
REMARK   54  A    between atoms: _123  and  _125
REMARK   55  A    between atoms: _125  and  _126
REMARK   56  A    between atoms: _125  and  _128
REMARK   57  A    between atoms: _128  and  _129
REMARK   58  A    between atoms: _129  and  _130
REMARK   59  A    between atoms: _132  and  _134
REMARK   60  A    between atoms: _134  and  _135
REMARK   61  A    between atoms: _134  and  _137
REMARK   62  A    between atoms: _137  and  _138
REMARK   63  A    between atoms: _141  and  _143
REMARK   64  A    between atoms: _143  and  _144
REMARK   65  A    between atoms: _146  and  _148
REMARK   66  A    between atoms: _148  and  _149
REMARK   67  A    between atoms: _151  and  _153
REMARK   68  A    between atoms: _153  and  _154
REMARK   69  A    between atoms: _153  and  _156
REMARK   70  A    between atoms: _156  and  _157
REMARK   71  A    between atoms: _160  and  _162
REMARK   72  A    between atoms: _162  and  _163
REMARK   73  A    between atoms: _165  and  _167
REMARK   74  A    between atoms: _167  and  _168
REMARK   75  A    between atoms: _170  and  _172
REMARK   76  A    between atoms: _172  and  _173
REMARK   77  A    between atoms: _172  and  _175
REMARK   78  A    between atoms: _175  and  _176
REMARK   79  A    between atoms: _182  and  _184
REMARK   80  A    between atoms: _184  and  _185
REMARK   81  A    between atoms: _184  and  _187
REMARK   82  A    between atoms: _187  and  _188
REMARK   83  A    between atoms: _191  and  _193
REMARK   84  A    between atoms: _193  and  _194
REMARK   85  A    between atoms: _193  and  _196
REMARK   86  A    between atoms: _199  and  _201
REMARK   87  A    between atoms: _201  and  _202
REMARK   88  A    between atoms: _201  and  _204
REMARK   89  A    between atoms: _204  and  _205
REMARK   90  A    between atoms: _209  and  _210
REMARK   91  A    between atoms: _215  and  _217
REMARK   92  A    between atoms: _217  and  _218
REMARK   93  A    between atoms: _217  and  _220
REMARK   94  A    between atoms: _220  and  _221
REMARK   95  A    between atoms: _225  and  _226
REMARK   96  A    between atoms: _231  and  _233
REMARK   97  A    between atoms: _233  and  _234
REMARK   98  A    between atoms: _233  and  _236
REMARK   99  A    between atoms: _239  and  _241
REMARK  100  A    between atoms: _241  and  _242
REMARK  101  A    between atoms: _241  and  _244
REMARK  102  A    between atoms: _244  and  _245
REMARK  103  A    between atoms: _250  and  _252
REMARK  104  A    between atoms: _252  and  _253
REMARK  105  A    between atoms: _252  and  _255
REMARK  106  A    between atoms: _255  and  _256
REMARK  107  A    between atoms: _259  and  _261
REMARK  108  A    between atoms: _261  and  _262
REMARK  109  A    between atoms: _261  and  _264
REMARK  110  A    between atoms: _264  and  _265
REMARK  111  A    between atoms: _268  and  _270
REMARK  112  A    between atoms: _270  and  _271
REMARK  113  A    between atoms: _273  and  _275
REMARK  114  A    between atoms: _275  and  _276
REMARK  115  A    between atoms: _275  and  _278
REMARK  116  A    between atoms: _278  and  _279
REMARK  117  A    between atoms: _279  and  _280
REMARK  118  A    between atoms: _280  and  _281
REMARK  119  A    between atoms: _290  and  _292
REMARK  120  A    between atoms: _292  and  _293
REMARK  121  A    between atoms: _292  and  _295
REMARK  122  A    between atoms: _295  and  _296
REMARK  123  A    between atoms: _301  and  _303
REMARK  124  A    between atoms: _303  and  _304
REMARK  125  A    between atoms: _303  and  _306
REMARK  126  A    between atoms: _306  and  _307
REMARK  127  A    between atoms: _307  and  _308
REMARK  128  A    between atoms: _308  and  _309
REMARK  129  A    between atoms: _318  and  _320
REMARK  130  A    between atoms: _320  and  _321
REMARK  131  A    between atoms: _320  and  _323
REMARK  132  A    between atoms: _323  and  _324
REMARK  133  A    between atoms: _327  and  _329
REMARK  134  A    between atoms: _329  and  _330
REMARK  135  A    between atoms: _329  and  _332
REMARK  136  A    between atoms: _332  and  _333
REMARK  137  A    between atoms: _336  and  _338
REMARK  138  A    between atoms: _338  and  _339
REMARK  139  A    between atoms: _338  and  _341
REMARK  140  A    between atoms: _341  and  _342
REMARK  141  A    between atoms: _345  and  _347
REMARK  142  A    between atoms: _347  and  _348
REMARK  143  A    between atoms: _347  and  _350
REMARK  144  A    between atoms: _350  and  _351
REMARK  145  A    between atoms: _354  and  _356
REMARK  146  A    between atoms: _356  and  _357
REMARK  147  A    between atoms: _359  and  _361
REMARK  148  A    between atoms: _361  and  _362
REMARK  149  A    between atoms: _365  and  _367
REMARK  150  A    between atoms: _367  and  _368
REMARK  151  A    between atoms: _367  and  _370
REMARK  152  A    between atoms: _370  and  _371
REMARK  153  A    between atoms: _374  and  _376
REMARK  154  A    between atoms: _376  and  _377
REMARK  155  A    between atoms: _376  and  _379
REMARK  156  A    between atoms: _379  and  _380
REMARK  157  A    between atoms: _383  and  _385
REMARK  158  A    between atoms: _385  and  _386
REMARK  159  A    between atoms: _385  and  _388
REMARK  160  A    between atoms: _388  and  _389
REMARK  161  A    between atoms: _392  and  _394
REMARK  162  A    between atoms: _394  and  _395
REMARK  163  A    between atoms: _394  and  _397
REMARK  164  A    between atoms: _400  and  _402
REMARK  165  A    between atoms: _402  and  _403
REMARK  166  A    between atoms: _402  and  _405
REMARK  167  A    between atoms: _405  and  _406
REMARK  168  A    between atoms: _406  and  _407
REMARK  169  A    between atoms: _407  and  _408
REMARK  170  A    between atoms: _408  and  _409
REMARK  171  A    between atoms: _413  and  _415
REMARK  172  A    between atoms: _415  and  _416
REMARK  173  A    between atoms: _415  and  _418
REMARK  174  A    between atoms: _418  and  _419
REMARK  175  A    between atoms: _419  and  _420
REMARK  176  A    between atoms: _422  and  _424
REMARK  177  A    between atoms: _424  and  _425
REMARK  178  A    between atoms: _424  and  _427
REMARK  179  A    between atoms: _427  and  _428
REMARK  180  A    between atoms: _431  and  _433
REMARK  181  A    between atoms: _433  and  _434
REMARK  182  A    between atoms: _436  and  _438
REMARK  183  A    between atoms: _438  and  _439
REMARK  184  A    between atoms: _441  and  _443
REMARK  185  A    between atoms: _443  and  _444
REMARK  186  A    between atoms: _443  and  _446
REMARK  187  A    between atoms: _446  and  _447
REMARK  188  A    between atoms: _450  and  _452
REMARK  189  A    between atoms: _452  and  _453
REMARK  190  A    between atoms: _455  and  _457
REMARK  191  A    between atoms: _457  and  _458
REMARK  192  A    between atoms: _460  and  _462
REMARK  193  A    between atoms: _462  and  _463
REMARK  194  A    between atoms: _462  and  _465
REMARK  195  A    between atoms: _465  and  _466
REMARK  196  A    between atoms: _472  and  _474
REMARK  197  A    between atoms: _474  and  _475
REMARK  198  A    between atoms: _474  and  _477
REMARK  199  A    between atoms: _477  and  _478
REMARK  200  A    between atoms: _481  and  _483
REMARK  201  A    between atoms: _483  and  _484
REMARK  202  A    between atoms: _483  and  _486
REMARK  203  A    between atoms: _489  and  _491
REMARK  204  A    between atoms: _491  and  _492
REMARK  205  A    between atoms: _491  and  _494
REMARK  206  A    between atoms: _494  and  _495
REMARK  207  A    between atoms: _499  and  _500
REMARK  208  A    between atoms: _505  and  _507
REMARK  209  A    between atoms: _507  and  _508
REMARK  210  A    between atoms: _507  and  _510
REMARK  211  A    between atoms: _510  and  _511
REMARK  212  A    between atoms: _515  and  _516
REMARK  213  A    between atoms: _521  and  _523
REMARK  214  A    between atoms: _523  and  _524
REMARK  215  A    between atoms: _523  and  _526
REMARK  216  A    between atoms: _529  and  _531
REMARK  217  A    between atoms: _531  and  _532
REMARK  218  A    between atoms: _531  and  _534
REMARK  219  A    between atoms: _534  and  _535
REMARK  220  A    between atoms: _540  and  _542
REMARK  221  A    between atoms: _542  and  _543
REMARK  222  A    between atoms: _542  and  _545
REMARK  223  A    between atoms: _545  and  _546
REMARK  224  A    between atoms: _549  and  _551
REMARK  225  A    between atoms: _551  and  _552
REMARK  226  A    between atoms: _551  and  _554
REMARK  227  A    between atoms: _554  and  _555
REMARK  228  A    between atoms: _558  and  _560
REMARK  229  A    between atoms: _560  and  _561
REMARK  230  A    between atoms: _563  and  _565
REMARK  231  A    between atoms: _565  and  _566
REMARK  232  A    between atoms: _565  and  _568
REMARK  233  A    between atoms: _568  and  _569
REMARK  234  A    between atoms: _569  and  _570
REMARK  235  A    between atoms: _570  and  _571
REMARK  236  A    between atoms: _580  and  _582
REMARK  237  A    between atoms: _582  and  _583
REMARK  238  A    between atoms: _582  and  _585
REMARK  239  A    between atoms: _585  and  _586
REMARK                            x       y       z     vdW  Elec       q    Type
REMARK                         _______ _______ _______ _____ _____    ______ ____
ROOT
ATOM      1  O   HOH     1       7.372  23.858  18.445  0.00  0.00    +0.000 OA
ENDROOT
TORSDOF 0
REMARK  Name = ../refined-set-2016/2aod/2aod_pocket.pdb
REMARK  239 active torsions:
REMARK  status: ('A' for Active; 'I' for Inactive)
REMARK    1  A    between atoms: _1  and  _3
REMARK    2  A    between atoms: _3  and  _4
REMARK    3  A    between atoms: _3  and  _6
REMARK    4  A    between atoms: _6  and  _7
REMARK    5  A    between atoms: _7  and  _8
REMARK    6  A    between atoms: _8  and  _9
REMARK    7  A    between atoms: _18  and  _20
REMARK    8  A    between atoms: _20  and  _21
REMARK    9  A    between atoms: _20  and  _23
REMARK   10  A    between atoms: _23  and  _24
REMARK   11  A    between atoms: _27  and  _29
REMARK   12  A    between atoms: _29  and  _30
REMARK   13  A    between atoms: _29  and  _32
REMARK   14  A    between atoms: _32  and  _33
REMARK   15  A    between atoms: _33  and  _34
REMARK   16  A    between atoms: _37  and  _39
REMARK   17  A    between atoms: _39  and  _40
REMARK   18  A    between atoms: _39  and  _42
REMARK   19  A    between atoms: _42  and  _43
REMARK   20  A    between atoms: _46  and  _48
REMARK   21  A    between atoms: _48  and  _49
REMARK   22  A    between atoms: _48  and  _51
REMARK   23  A    between atoms: _51  and  _52
REMARK   24  A    between atoms: _55  and  _57
REMARK   25  A    between atoms: _57  and  _58
REMARK   26  A    between atoms: _57  and  _60
REMARK   27  A    between atoms: _60  and  _61
REMARK   28  A    between atoms: _64  and  _66
REMARK   29  A    between atoms: _66  and  _67
REMARK   30  A    between atoms: _69  and  _71
REMARK   31  A    between atoms: _71  and  _72
REMARK   32  A    between atoms: _75  and  _77
REMARK   33  A    between atoms: _77  and  _78
REMARK   34  A    between atoms: _77  and  _80
REMARK   35  A    between atoms: _80  and  _81
REMARK   36  A    between atoms: _84  and  _86
REMARK   37  A    between atoms: _86  and  _87
REMARK   38  A    between atoms: _86  and  _89
REMARK   39  A    between atoms: _89  and  _90
REMARK   40  A    between atoms: _93  and  _95
REMARK   41  A    between atoms: _95  and  _96
REMARK   42  A    between atoms: _95  and  _98
REMARK   43  A    between atoms: _98  and  _99
REMARK   44  A    between atoms: _102  and  _104
REMARK   45  A    between atoms: _104  and  _105
REMARK   46  A    between atoms: _104  and  _107
REMARK   47  A    between atoms: _110  and  _112
REMARK   48  A    between atoms: _112  and  _113
REMARK   49  A    between atoms: _112  and  _115
REMARK   50  A    between atoms: _115  and  _116
REMARK   51  A    between atoms: _116  and  _117
REMARK   52  A    between atoms: _117  and  _118
REMARK   53  A    between atoms: _118  and  _119
REMARK   54  A    between atoms: _123  and  _125
REMARK   55  A    between atoms: _125  and  _126
REMARK   56  A    between atoms: _125  and  _128
REMARK   57  A    between atoms: _128  and  _129
REMARK   58  A    between atoms: _129  and  _130
REMARK   59  A    between atoms: _132  and  _134
REMARK   60  A    between atoms: _134  and  _135
REMARK   61  A    between atoms: _134  and  _137
REMARK   62  A    between atoms: _137  and  _138
REMARK   63  A    between atoms: _141  and  _143
REMARK   64  A    between atoms: _143  and  _144
REMARK   65  A    between atoms: _146  and  _148
REMARK   66  A    between atoms: _148  and  _149
REMARK   67  A    between atoms: _151  and  _153
REMARK   68  A    between atoms: _153  and  _154
REMARK   69  A    between atoms: _153  and  _156
REMARK   70  A    between atoms: _156  and  _157
REMARK   71  A    between atoms: _160  and  _162
REMARK   72  A    between atoms: _162  and  _163
REMARK   73  A    between atoms: _165  and  _167
REMARK   74  A    between atoms: _167  and  _168
REMARK   75  A    between atoms: _170  and  _172
REMARK   76  A    between atoms: _172  and  _173
REMARK   77  A    between atoms: _172  and  _175
REMARK   78  A    between atoms: _175  and  _176
REMARK   79  A    between atoms: _182  and  _184
REMARK   80  A    between atoms: _184  and  _185
REMARK   81  A    between atoms: _184  and  _187
REMARK   82  A    between atoms: _187  and  _188
REMARK   83  A    between atoms: _191  and  _193
REMARK   84  A    between atoms: _193  and  _194
REMARK   85  A    between atoms: _193  and  _196
REMARK   86  A    between atoms: _199  and  _201
REMARK   87  A    between atoms: _201  and  _202
REMARK   88  A    between atoms: _201  and  _204
REMARK   89  A    between atoms: _204  and  _205
REMARK   90  A    between atoms: _209  and  _210
REMARK   91  A    between atoms: _215  and  _217
REMARK   92  A    between atoms: _217  and  _218
REMARK   93  A    between atoms: _217  and  _220
REMARK   94  A    between atoms: _220  and  _221
REMARK   95  A    between atoms: _225  and  _226
REMARK   96  A    between atoms: _231  and  _233
REMARK   97  A    between atoms: _233  and  _234
REMARK   98  A    between atoms: _233  and  _236
REMARK   99  A    between atoms: _239  and  _241
REMARK  100  A    between atoms: _241  and  _242
REMARK  101  A    between atoms: _241  and  _244
REMARK  102  A    between atoms: _244  and  _245
REMARK  103  A    between atoms: _250  and  _252
REMARK  104  A    between atoms: _252  and  _253
REMARK  105  A    between atoms: _252  and  _255
REMARK  106  A    between atoms: _255  and  _256
REMARK  107  A    between atoms: _259  and  _261
REMARK  108  A    between atoms: _261  and  _262
REMARK  109  A    between atoms: _261  and  _264
REMARK  110  A    between atoms: _264  and  _265
REMARK  111  A    between atoms: _268  and  _270
REMARK  112  A    between atoms: _270  and  _271
REMARK  113  A    between atoms: _273  and  _275
REMARK  114  A    between atoms: _275  and  _276
REMARK  115  A    between atoms: _275  and  _278
REMARK  116  A    between atoms: _278  and  _279
REMARK  117  A    between atoms: _279  and  _280
REMARK  118  A    between atoms: _280  and  _281
REMARK  119  A    between atoms: _290  and  _292
REMARK  120  A    between atoms: _292  and  _293
REMARK  121  A    between atoms: _292  and  _295
REMARK  122  A    between atoms: _295  and  _296
REMARK  123  A    between atoms: _301  and  _303
REMARK  124  A    between atoms: _303  and  _304
REMARK  125  A    between atoms: _303  and  _306
REMARK  126  A    between atoms: _306  and  _307
REMARK  127  A    between atoms: _307  and  _308
REMARK  128  A    between atoms: _308  and  _309
REMARK  129  A    between atoms: _318  and  _320
REMARK  130  A    between atoms: _320  and  _321
REMARK  131  A    between atoms: _320  and  _323
REMARK  132  A    between atoms: _323  and  _324
REMARK  133  A    between atoms: _327  and  _329
REMARK  134  A    between atoms: _329  and  _330
REMARK  135  A    between atoms: _329  and  _332
REMARK  136  A    between atoms: _332  and  _333
REMARK  137  A    between atoms: _336  and  _338
REMARK  138  A    between atoms: _338  and  _339
REMARK  139  A    between atoms: _338  and  _341
REMARK  140  A    between atoms: _341  and  _342
REMARK  141  A    between atoms: _345  and  _347
REMARK  142  A    between atoms: _347  and  _348
REMARK  143  A    between atoms: _347  and  _350
REMARK  144  A    between atoms: _350  and  _351
REMARK  145  A    between atoms: _354  and  _356
REMARK  146  A    between atoms: _356  and  _357
REMARK  147  A    between atoms: _359  and  _361
REMARK  148  A    between atoms: _361  and  _362
REMARK  149  A    between atoms: _365  and  _367
REMARK  150  A    between atoms: _367  and  _368
REMARK  151  A    between atoms: _367  and  _370
REMARK  152  A    between atoms: _370  and  _371
REMARK  153  A    between atoms: _374  and  _376
REMARK  154  A    between atoms: _376  and  _377
REMARK  155  A    between atoms: _376  and  _379
REMARK  156  A    between atoms: _379  and  _380
REMARK  157  A    between atoms: _383  and  _385
REMARK  158  A    between atoms: _385  and  _386
REMARK  159  A    between atoms: _385  and  _388
REMARK  160  A    between atoms: _388  and  _389
REMARK  161  A    between atoms: _392  and  _394
REMARK  162  A    between atoms: _394  and  _395
REMARK  163  A    between atoms: _394  and  _397
REMARK  164  A    between atoms: _400  and  _402
REMARK  165  A    between atoms: _402  and  _403
REMARK  166  A    between atoms: _402  and  _405
REMARK  167  A    between atoms: _405  and  _406
REMARK  168  A    between atoms: _406  and  _407
REMARK  169  A    between atoms: _407  and  _408
REMARK  170  A    between atoms: _408  and  _409
REMARK  171  A    between atoms: _413  and  _415
REMARK  172  A    between atoms: _415  and  _416
REMARK  173  A    between atoms: _415  and  _418
REMARK  174  A    between atoms: _418  and  _419
REMARK  175  A    between atoms: _419  and  _420
REMARK  176  A    between atoms: _422  and  _424
REMARK  177  A    between atoms: _424  and  _425
REMARK  178  A    between atoms: _424  and  _427
REMARK  179  A    between atoms: _427  and  _428
REMARK  180  A    between atoms: _431  and  _433
REMARK  181  A    between atoms: _433  and  _434
REMARK  182  A    between atoms: _436  and  _438
REMARK  183  A    between atoms: _438  and  _439
REMARK  184  A    between atoms: _441  and  _443
REMARK  185  A    between atoms: _443  and  _444
REMARK  186  A    between atoms: _443  and  _446
REMARK  187  A    between atoms: _446  and  _447
REMARK  188  A    between atoms: _450  and  _452
REMARK  189  A    between atoms: _452  and  _453
REMARK  190  A    between atoms: _455  and  _457
REMARK  191  A    between atoms: _457  and  _458
REMARK  192  A    between atoms: _460  and  _462
REMARK  193  A    between atoms: _462  and  _463
REMARK  194  A    between atoms: _462  and  _465
REMARK  195  A    between atoms: _465  and  _466
REMARK  196  A    between atoms: _472  and  _474
REMARK  197  A    between atoms: _474  and  _475
REMARK  198  A    between atoms: _474  and  _477
REMARK  199  A    between atoms: _477  and  _478
REMARK  200  A    between atoms: _481  and  _483
REMARK  201  A    between atoms: _483  and  _484
REMARK  202  A    between atoms: _483  and  _486
REMARK  203  A    between atoms: _489  and  _491
REMARK  204  A    between atoms: _491  and  _492
REMARK  205  A    between atoms: _491  and  _494
REMARK  206  A    between atoms: _494  and  _495
REMARK  207  A    between atoms: _499  and  _500
REMARK  208  A    between atoms: _505  and  _507
REMARK  209  A    between atoms: _507  and  _508
REMARK  210  A    between atoms: _507  and  _510
REMARK  211  A    between atoms: _510  and  _511
REMARK  212  A    between atoms: _515  and  _516
REMARK  213  A    between atoms: _521  and  _523
REMARK  214  A    between atoms: _523  and  _524
REMARK  215  A    between atoms: _523  and  _526
REMARK  216  A    between atoms: _529  and  _531
REMARK  217  A    between atoms: _531  and  _532
REMARK  218  A    between atoms: _531  and  _534
REMARK  219  A    between atoms: _534  and  _535
REMARK  220  A    between atoms: _540  and  _542
REMARK  221  A    between atoms: _542  and  _543
REMARK  222  A    between atoms: _542  and  _545
REMARK  223  A    between atoms: _545  and  _546
REMARK  224  A    between atoms: _549  and  _551
REMARK  225  A    between atoms: _551  and  _552
REMARK  226  A    between atoms: _551  and  _554
REMARK  227  A    between atoms: _554  and  _555
REMARK  228  A    between atoms: _558  and  _560
REMARK  229  A    between atoms: _560  and  _561
REMARK  230  A    between atoms: _563  and  _565
REMARK  231  A    between atoms: _565  and  _566
REMARK  232  A    between atoms: _565  and  _568
REMARK  233  A    between atoms: _568  and  _569
REMARK  234  A    between atoms: _569  and  _570
REMARK  235  A    between atoms: _570  and  _571
REMARK  236  A    between atoms: _580  and  _582
REMARK  237  A    between atoms: _582  and  _583
REMARK  238  A    between atoms: _582  and  _585
REMARK  239  A    between atoms: _585  and  _586
REMARK                            x       y       z     vdW  Elec       q    Type
REMARK                         _______ _______ _______ _____ _____    ______ ____
ROOT
ATOM      1  O   HOH     1       8.678  21.856  16.978  0.00  0.00    +0.000 OA
ENDROOT
TORSDOF 0
REMARK  Name = ../refined-set-2016/2aod/2aod_pocket.pdb
REMARK  239 active torsions:
REMARK  status: ('A' for Active; 'I' for Inactive)
REMARK    1  A    between atoms: _1  and  _3
REMARK    2  A    between atoms: _3  and  _4
REMARK    3  A    between atoms: _3  and  _6
REMARK    4  A    between atoms: _6  and  _7
REMARK    5  A    between atoms: _7  and  _8
REMARK    6  A    between atoms: _8  and  _9
REMARK    7  A    between atoms: _18  and  _20
REMARK    8  A    between atoms: _20  and  _21
REMARK    9  A    between atoms: _20  and  _23
REMARK   10  A    between atoms: _23  and  _24
REMARK   11  A    between atoms: _27  and  _29
REMARK   12  A    between atoms: _29  and  _30
REMARK   13  A    between atoms: _29  and  _32
REMARK   14  A    between atoms: _32  and  _33
REMARK   15  A    between atoms: _33  and  _34
REMARK   16  A    between atoms: _37  and  _39
REMARK   17  A    between atoms: _39  and  _40
REMARK   18  A    between atoms: _39  and  _42
REMARK   19  A    between atoms: _42  and  _43
REMARK   20  A    between atoms: _46  and  _48
REMARK   21  A    between atoms: _48  and  _49
REMARK   22  A    between atoms: _48  and  _51
REMARK   23  A    between atoms: _51  and  _52
REMARK   24  A    between atoms: _55  and  _57
REMARK   25  A    between atoms: _57  and  _58
REMARK   26  A    between atoms: _57  and  _60
REMARK   27  A    between atoms: _60  and  _61
REMARK   28  A    between atoms: _64  and  _66
REMARK   29  A    between atoms: _66  and  _67
REMARK   30  A    between atoms: _69  and  _71
REMARK   31  A    between atoms: _71  and  _72
REMARK   32  A    between atoms: _75  and  _77
REMARK   33  A    between atoms: _77  and  _78
REMARK   34  A    between atoms: _77  and  _80
REMARK   35  A    between atoms: _80  and  _81
REMARK   36  A    between atoms: _84  and  _86
REMARK   37  A    between atoms: _86  and  _87
REMARK   38  A    between atoms: _86  and  _89
REMARK   39  A    between atoms: _89  and  _90
REMARK   40  A    between atoms: _93  and  _95
REMARK   41  A    between atoms: _95  and  _96
REMARK   42  A    between atoms: _95  and  _98
REMARK   43  A    between atoms: _98  and  _99
REMARK   44  A    between atoms: _102  and  _104
REMARK   45  A    between atoms: _104  and  _105
REMARK   46  A    between atoms: _104  and  _107
REMARK   47  A    between atoms: _110  and  _112
REMARK   48  A    between atoms: _112  and  _113
REMARK   49  A    between atoms: _112  and  _115
REMARK   50  A    between atoms: _115  and  _116
REMARK   51  A    between atoms: _116  and  _117
REMARK   52  A    between atoms: _117  and  _118
REMARK   53  A    between atoms: _118  and  _119
REMARK   54  A    between atoms: _123  and  _125
REMARK   55  A    between atoms: _125  and  _126
REMARK   56  A    between atoms: _125  and  _128
REMARK   57  A    between atoms: _128  and  _129
REMARK   58  A    between atoms: _129  and  _130
REMARK   59  A    between atoms: _132  and  _134
REMARK   60  A    between atoms: _134  and  _135
REMARK   61  A    between atoms: _134  and  _137
REMARK   62  A    between atoms: _137  and  _138
REMARK   63  A    between atoms: _141  and  _143
REMARK   64  A    between atoms: _143  and  _144
REMARK   65  A    between atoms: _146  and  _148
REMARK   66  A    between atoms: _148  and  _149
REMARK   67  A    between atoms: _151  and  _153
REMARK   68  A    between atoms: _153  and  _154
REMARK   69  A    between atoms: _153  and  _156
REMARK   70  A    between atoms: _156  and  _157
REMARK   71  A    between atoms: _160  and  _162
REMARK   72  A    between atoms: _162  and  _163
REMARK   73  A    between atoms: _165  and  _167
REMARK   74  A    between atoms: _167  and  _168
REMARK   75  A    between atoms: _170  and  _172
REMARK   76  A    between atoms: _172  and  _173
REMARK   77  A    between atoms: _172  and  _175
REMARK   78  A    between atoms: _175  and  _176
REMARK   79  A    between atoms: _182  and  _184
REMARK   80  A    between atoms: _184  and  _185
REMARK   81  A    between atoms: _184  and  _187
REMARK   82  A    between atoms: _187  and  _188
REMARK   83  A    between atoms: _191  and  _193
REMARK   84  A    between atoms: _193  and  _194
REMARK   85  A    between atoms: _193  and  _196
REMARK   86  A    between atoms: _199  and  _201
REMARK   87  A    between atoms: _201  and  _202
REMARK   88  A    between atoms: _201  and  _204
REMARK   89  A    between atoms: _204  and  _205
REMARK   90  A    between atoms: _209  and  _210
REMARK   91  A    between atoms: _215  and  _217
REMARK   92  A    between atoms: _217  and  _218
REMARK   93  A    between atoms: _217  and  _220
REMARK   94  A    between atoms: _220  and  _221
REMARK   95  A    between atoms: _225  and  _226
REMARK   96  A    between atoms: _231  and  _233
REMARK   97  A    between atoms: _233  and  _234
REMARK   98  A    between atoms: _233  and  _236
REMARK   99  A    between atoms: _239  and  _241
REMARK  100  A    between atoms: _241  and  _242
REMARK  101  A    between atoms: _241  and  _244
REMARK  102  A    between atoms: _244  and  _245
REMARK  103  A    between atoms: _250  and  _252
REMARK  104  A    between atoms: _252  and  _253
REMARK  105  A    between atoms: _252  and  _255
REMARK  106  A    between atoms: _255  and  _256
REMARK  107  A    between atoms: _259  and  _261
REMARK  108  A    between atoms: _261  and  _262
REMARK  109  A    between atoms: _261  and  _264
REMARK  110  A    between atoms: _264  and  _265
REMARK  111  A    between atoms: _268  and  _270
REMARK  112  A    between atoms: _270  and  _271
REMARK  113  A    between atoms: _273  and  _275
REMARK  114  A    between atoms: _275  and  _276
REMARK  115  A    between atoms: _275  and  _278
REMARK  116  A    between atoms: _278  and  _279
REMARK  117  A    between atoms: _279  and  _280
REMARK  118  A    between atoms: _280  and  _281
REMARK  119  A    between atoms: _290  and  _292
REMARK  120  A    between atoms: _292  and  _293
REMARK  121  A    between atoms: _292  and  _295
REMARK  122  A    between atoms: _295  and  _296
REMARK  123  A    between atoms: _301  and  _303
REMARK  124  A    between atoms: _303  and  _304
REMARK  125  A    between atoms: _303  and  _306
REMARK  126  A    between atoms: _306  and  _307
REMARK  127  A    between atoms: _307  and  _308
REMARK  128  A    between atoms: _308  and  _309
REMARK  129  A    between atoms: _318  and  _320
REMARK  130  A    between atoms: _320  and  _321
REMARK  131  A    between atoms: _320  and  _323
REMARK  132  A    between atoms: _323  and  _324
REMARK  133  A    between atoms: _327  and  _329
REMARK  134  A    between atoms: _329  and  _330
REMARK  135  A    between atoms: _329  and  _332
REMARK  136  A    between atoms: _332  and  _333
REMARK  137  A    between atoms: _336  and  _338
REMARK  138  A    between atoms: _338  and  _339
REMARK  139  A    between atoms: _338  and  _341
REMARK  140  A    between atoms: _341  and  _342
REMARK  141  A    between atoms: _345  and  _347
REMARK  142  A    between atoms: _347  and  _348
REMARK  143  A    between atoms: _347  and  _350
REMARK  144  A    between atoms: _350  and  _351
REMARK  145  A    between atoms: _354  and  _356
REMARK  146  A    between atoms: _356  and  _357
REMARK  147  A    between atoms: _359  and  _361
REMARK  148  A    between atoms: _361  and  _362
REMARK  149  A    between atoms: _365  and  _367
REMARK  150  A    between atoms: _367  and  _368
REMARK  151  A    between atoms: _367  and  _370
REMARK  152  A    between atoms: _370  and  _371
REMARK  153  A    between atoms: _374  and  _376
REMARK  154  A    between atoms: _376  and  _377
REMARK  155  A    between atoms: _376  and  _379
REMARK  156  A    between atoms: _379  and  _380
REMARK  157  A    between atoms: _383  and  _385
REMARK  158  A    between atoms: _385  and  _386
REMARK  159  A    between atoms: _385  and  _388
REMARK  160  A    between atoms: _388  and  _389
REMARK  161  A    between atoms: _392  and  _394
REMARK  162  A    between atoms: _394  and  _395
REMARK  163  A    between atoms: _394  and  _397
REMARK  164  A    between atoms: _400  and  _402
REMARK  165  A    between atoms: _402  and  _403
REMARK  166  A    between atoms: _402  and  _405
REMARK  167  A    between atoms: _405  and  _406
REMARK  168  A    between atoms: _406  and  _407
REMARK  169  A    between atoms: _407  and  _408
REMARK  170  A    between atoms: _408  and  _409
REMARK  171  A    between atoms: _413  and  _415
REMARK  172  A    between atoms: _415  and  _416
REMARK  173  A    between atoms: _415  and  _418
REMARK  174  A    between atoms: _418  and  _419
REMARK  175  A    between atoms: _419  and  _420
REMARK  176  A    between atoms: _422  and  _424
REMARK  177  A    between atoms: _424  and  _425
REMARK  178  A    between atoms: _424  and  _427
REMARK  179  A    between atoms: _427  and  _428
REMARK  180  A    between atoms: _431  and  _433
REMARK  181  A    between atoms: _433  and  _434
REMARK  182  A    between atoms: _436  and  _438
REMARK  183  A    between atoms: _438  and  _439
REMARK  184  A    between atoms: _441  and  _443
REMARK  185  A    between atoms: _443  and  _444
REMARK  186  A    between atoms: _443  and  _446
REMARK  187  A    between atoms: _446  and  _447
REMARK  188  A    between atoms: _450  and  _452
REMARK  189  A    between atoms: _452  and  _453
REMARK  190  A    between atoms: _455  and  _457
REMARK  191  A    between atoms: _457  and  _458
REMARK  192  A    between atoms: _460  and  _462
REMARK  193  A    between atoms: _462  and  _463
REMARK  194  A    between atoms: _462  and  _465
REMARK  195  A    between atoms: _465  and  _466
REMARK  196  A    between atoms: _472  and  _474
REMARK  197  A    between atoms: _474  and  _475
REMARK  198  A    between atoms: _474  and  _477
REMARK  199  A    between atoms: _477  and  _478
REMARK  200  A    between atoms: _481  and  _483
REMARK  201  A    between atoms: _483  and  _484
REMARK  202  A    between atoms: _483  and  _486
REMARK  203  A    between atoms: _489  and  _491
REMARK  204  A    between atoms: _491  and  _492
REMARK  205  A    between atoms: _491  and  _494
REMARK  206  A    between atoms: _494  and  _495
REMARK  207  A    between atoms: _499  and  _500
REMARK  208  A    between atoms: _505  and  _507
REMARK  209  A    between atoms: _507  and  _508
REMARK  210  A    between atoms: _507  and  _510
REMARK  211  A    between atoms: _510  and  _511
REMARK  212  A    between atoms: _515  and  _516
REMARK  213  A    between atoms: _521  and  _523
REMARK  214  A    between atoms: _523  and  _524
REMARK  215  A    between atoms: _523  and  _526
REMARK  216  A    between atoms: _529  and  _531
REMARK  217  A    between atoms: _531  and  _532
REMARK  218  A    between atoms: _531  and  _534
REMARK  219  A    between atoms: _534  and  _535
REMARK  220  A    between atoms: _540  and  _542
REMARK  221  A    between atoms: _542  and  _543
REMARK  222  A    between atoms: _542  and  _545
REMARK  223  A    between atoms: _545  and  _546
REMARK  224  A    between atoms: _549  and  _551
REMARK  225  A    between atoms: _551  and  _552
REMARK  226  A    between atoms: _551  and  _554
REMARK  227  A    between atoms: _554  and  _555
REMARK  228  A    between atoms: _558  and  _560
REMARK  229  A    between atoms: _560  and  _561
REMARK  230  A    between atoms: _563  and  _565
REMARK  231  A    between atoms: _565  and  _566
REMARK  232  A    between atoms: _565  and  _568
REMARK  233  A    between atoms: _568  and  _569
REMARK  234  A    between atoms: _569  and  _570
REMARK  235  A    between atoms: _570  and  _571
REMARK  236  A    between atoms: _580  and  _582
REMARK  237  A    between atoms: _582  and  _583
REMARK  238  A    between atoms: _582  and  _585
REMARK  239  A    between atoms: _585  and  _586
REMARK                            x       y       z     vdW  Elec       q    Type
REMARK                         _______ _______ _______ _____ _____    ______ ____
ROOT
ATOM      1  O   HOH     1       9.014  16.286  27.178  0.00  0.00    +0.000 OA
ENDROOT
TORSDOF 0
REMARK  Name = ../refined-set-2016/2aod/2aod_pocket.pdb
REMARK  239 active torsions:
REMARK  status: ('A' for Active; 'I' for Inactive)
REMARK    1  A    between atoms: _1  and  _3
REMARK    2  A    between atoms: _3  and  _4
REMARK    3  A    between atoms: _3  and  _6
REMARK    4  A    between atoms: _6  and  _7
REMARK    5  A    between atoms: _7  and  _8
REMARK    6  A    between atoms: _8  and  _9
REMARK    7  A    between atoms: _18  and  _20
REMARK    8  A    between atoms: _20  and  _21
REMARK    9  A    between atoms: _20  and  _23
REMARK   10  A    between atoms: _23  and  _24
REMARK   11  A    between atoms: _27  and  _29
REMARK   12  A    between atoms: _29  and  _30
REMARK   13  A    between atoms: _29  and  _32
REMARK   14  A    between atoms: _32  and  _33
REMARK   15  A    between atoms: _33  and  _34
REMARK   16  A    between atoms: _37  and  _39
REMARK   17  A    between atoms: _39  and  _40
REMARK   18  A    between atoms: _39  and  _42
REMARK   19  A    between atoms: _42  and  _43
REMARK   20  A    between atoms: _46  and  _48
REMARK   21  A    between atoms: _48  and  _49
REMARK   22  A    between atoms: _48  and  _51
REMARK   23  A    between atoms: _51  and  _52
REMARK   24  A    between atoms: _55  and  _57
REMARK   25  A    between atoms: _57  and  _58
REMARK   26  A    between atoms: _57  and  _60
REMARK   27  A    between atoms: _60  and  _61
REMARK   28  A    between atoms: _64  and  _66
REMARK   29  A    between atoms: _66  and  _67
REMARK   30  A    between atoms: _69  and  _71
REMARK   31  A    between atoms: _71  and  _72
REMARK   32  A    between atoms: _75  and  _77
REMARK   33  A    between atoms: _77  and  _78
REMARK   34  A    between atoms: _77  and  _80
REMARK   35  A    between atoms: _80  and  _81
REMARK   36  A    between atoms: _84  and  _86
REMARK   37  A    between atoms: _86  and  _87
REMARK   38  A    between atoms: _86  and  _89
REMARK   39  A    between atoms: _89  and  _90
REMARK   40  A    between atoms: _93  and  _95
REMARK   41  A    between atoms: _95  and  _96
REMARK   42  A    between atoms: _95  and  _98
REMARK   43  A    between atoms: _98  and  _99
REMARK   44  A    between atoms: _102  and  _104
REMARK   45  A    between atoms: _104  and  _105
REMARK   46  A    between atoms: _104  and  _107
REMARK   47  A    between atoms: _110  and  _112
REMARK   48  A    between atoms: _112  and  _113
REMARK   49  A    between atoms: _112  and  _115
REMARK   50  A    between atoms: _115  and  _116
REMARK   51  A    between atoms: _116  and  _117
REMARK   52  A    between atoms: _117  and  _118
REMARK   53  A    between atoms: _118  and  _119
REMARK   54  A    between atoms: _123  and  _125
REMARK   55  A    between atoms: _125  and  _126
REMARK   56  A    between atoms: _125  and  _128
REMARK   57  A    between atoms: _128  and  _129
REMARK   58  A    between atoms: _129  and  _130
REMARK   59  A    between atoms: _132  and  _134
REMARK   60  A    between atoms: _134  and  _135
REMARK   61  A    between atoms: _134  and  _137
REMARK   62  A    between atoms: _137  and  _138
REMARK   63  A    between atoms: _141  and  _143
REMARK   64  A    between atoms: _143  and  _144
REMARK   65  A    between atoms: _146  and  _148
REMARK   66  A    between atoms: _148  and  _149
REMARK   67  A    between atoms: _151  and  _153
REMARK   68  A    between atoms: _153  and  _154
REMARK   69  A    between atoms: _153  and  _156
REMARK   70  A    between atoms: _156  and  _157
REMARK   71  A    between atoms: _160  and  _162
REMARK   72  A    between atoms: _162  and  _163
REMARK   73  A    between atoms: _165  and  _167
REMARK   74  A    between atoms: _167  and  _168
REMARK   75  A    between atoms: _170  and  _172
REMARK   76  A    between atoms: _172  and  _173
REMARK   77  A    between atoms: _172  and  _175
REMARK   78  A    between atoms: _175  and  _176
REMARK   79  A    between atoms: _182  and  _184
REMARK   80  A    between atoms: _184  and  _185
REMARK   81  A    between atoms: _184  and  _187
REMARK   82  A    between atoms: _187  and  _188
REMARK   83  A    between atoms: _191  and  _193
REMARK   84  A    between atoms: _193  and  _194
REMARK   85  A    between atoms: _193  and  _196
REMARK   86  A    between atoms: _199  and  _201
REMARK   87  A    between atoms: _201  and  _202
REMARK   88  A    between atoms: _201  and  _204
REMARK   89  A    between atoms: _204  and  _205
REMARK   90  A    between atoms: _209  and  _210
REMARK   91  A    between atoms: _215  and  _217
REMARK   92  A    between atoms: _217  and  _218
REMARK   93  A    between atoms: _217  and  _220
REMARK   94  A    between atoms: _220  and  _221
REMARK   95  A    between atoms: _225  and  _226
REMARK   96  A    between atoms: _231  and  _233
REMARK   97  A    between atoms: _233  and  _234
REMARK   98  A    between atoms: _233  and  _236
REMARK   99  A    between atoms: _239  and  _241
REMARK  100  A    between atoms: _241  and  _242
REMARK  101  A    between atoms: _241  and  _244
REMARK  102  A    between atoms: _244  and  _245
REMARK  103  A    between atoms: _250  and  _252
REMARK  104  A    between atoms: _252  and  _253
REMARK  105  A    between atoms: _252  and  _255
REMARK  106  A    between atoms: _255  and  _256
REMARK  107  A    between atoms: _259  and  _261
REMARK  108  A    between atoms: _261  and  _262
REMARK  109  A    between atoms: _261  and  _264
REMARK  110  A    between atoms: _264  and  _265
REMARK  111  A    between atoms: _268  and  _270
REMARK  112  A    between atoms: _270  and  _271
REMARK  113  A    between atoms: _273  and  _275
REMARK  114  A    between atoms: _275  and  _276
REMARK  115  A    between atoms: _275  and  _278
REMARK  116  A    between atoms: _278  and  _279
REMARK  117  A    between atoms: _279  and  _280
REMARK  118  A    between atoms: _280  and  _281
REMARK  119  A    between atoms: _290  and  _292
REMARK  120  A    between atoms: _292  and  _293
REMARK  121  A    between atoms: _292  and  _295
REMARK  122  A    between atoms: _295  and  _296
REMARK  123  A    between atoms: _301  and  _303
REMARK  124  A    between atoms: _303  and  _304
REMARK  125  A    between atoms: _303  and  _306
REMARK  126  A    between atoms: _306  and  _307
REMARK  127  A    between atoms: _307  and  _308
REMARK  128  A    between atoms: _308  and  _309
REMARK  129  A    between atoms: _318  and  _320
REMARK  130  A    between atoms: _320  and  _321
REMARK  131  A    between atoms: _320  and  _323
REMARK  132  A    between atoms: _323  and  _324
REMARK  133  A    between atoms: _327  and  _329
REMARK  134  A    between atoms: _329  and  _330
REMARK  135  A    between atoms: _329  and  _332
REMARK  136  A    between atoms: _332  and  _333
REMARK  137  A    between atoms: _336  and  _338
REMARK  138  A    between atoms: _338  and  _339
REMARK  139  A    between atoms: _338  and  _341
REMARK  140  A    between atoms: _341  and  _342
REMARK  141  A    between atoms: _345  and  _347
REMARK  142  A    between atoms: _347  and  _348
REMARK  143  A    between atoms: _347  and  _350
REMARK  144  A    between atoms: _350  and  _351
REMARK  145  A    between atoms: _354  and  _356
REMARK  146  A    between atoms: _356  and  _357
REMARK  147  A    between atoms: _359  and  _361
REMARK  148  A    between atoms: _361  and  _362
REMARK  149  A    between atoms: _365  and  _367
REMARK  150  A    between atoms: _367  and  _368
REMARK  151  A    between atoms: _367  and  _370
REMARK  152  A    between atoms: _370  and  _371
REMARK  153  A    between atoms: _374  and  _376
REMARK  154  A    between atoms: _376  and  _377
REMARK  155  A    between atoms: _376  and  _379
REMARK  156  A    between atoms: _379  and  _380
REMARK  157  A    between atoms: _383  and  _385
REMARK  158  A    between atoms: _385  and  _386
REMARK  159  A    between atoms: _385  and  _388
REMARK  160  A    between atoms: _388  and  _389
REMARK  161  A    between atoms: _392  and  _394
REMARK  162  A    between atoms: _394  and  _395
REMARK  163  A    between atoms: _394  and  _397
REMARK  164  A    between atoms: _400  and  _402
REMARK  165  A    between atoms: _402  and  _403
REMARK  166  A    between atoms: _402  and  _405
REMARK  167  A    between atoms: _405  and  _406
REMARK  168  A    between atoms: _406  and  _407
REMARK  169  A    between atoms: _407  and  _408
REMARK  170  A    between atoms: _408  and  _409
REMARK  171  A    between atoms: _413  and  _415
REMARK  172  A    between atoms: _415  and  _416
REMARK  173  A    between atoms: _415  and  _418
REMARK  174  A    between atoms: _418  and  _419
REMARK  175  A    between atoms: _419  and  _420
REMARK  176  A    between atoms: _422  and  _424
REMARK  177  A    between atoms: _424  and  _425
REMARK  178  A    between atoms: _424  and  _427
REMARK  179  A    between atoms: _427  and  _428
REMARK  180  A    between atoms: _431  and  _433
REMARK  181  A    between atoms: _433  and  _434
REMARK  182  A    between atoms: _436  and  _438
REMARK  183  A    between atoms: _438  and  _439
REMARK  184  A    between atoms: _441  and  _443
REMARK  185  A    between atoms: _443  and  _444
REMARK  186  A    between atoms: _443  and  _446
REMARK  187  A    between atoms: _446  and  _447
REMARK  188  A    between atoms: _450  and  _452
REMARK  189  A    between atoms: _452  and  _453
REMARK  190  A    between atoms: _455  and  _457
REMARK  191  A    between atoms: _457  and  _458
REMARK  192  A    between atoms: _460  and  _462
REMARK  193  A    between atoms: _462  and  _463
REMARK  194  A    between atoms: _462  and  _465
REMARK  195  A    between atoms: _465  and  _466
REMARK  196  A    between atoms: _472  and  _474
REMARK  197  A    between atoms: _474  and  _475
REMARK  198  A    between atoms: _474  and  _477
REMARK  199  A    between atoms: _477  and  _478
REMARK  200  A    between atoms: _481  and  _483
REMARK  201  A    between atoms: _483  and  _484
REMARK  202  A    between atoms: _483  and  _486
REMARK  203  A    between atoms: _489  and  _491
REMARK  204  A    between atoms: _491  and  _492
REMARK  205  A    between atoms: _491  and  _494
REMARK  206  A    between atoms: _494  and  _495
REMARK  207  A    between atoms: _499  and  _500
REMARK  208  A    between atoms: _505  and  _507
REMARK  209  A    between atoms: _507  and  _508
REMARK  210  A    between atoms: _507  and  _510
REMARK  211  A    between atoms: _510  and  _511
REMARK  212  A    between atoms: _515  and  _516
REMARK  213  A    between atoms: _521  and  _523
REMARK  214  A    between atoms: _523  and  _524
REMARK  215  A    between atoms: _523  and  _526
REMARK  216  A    between atoms: _529  and  _531
REMARK  217  A    between atoms: _531  and  _532
REMARK  218  A    between atoms: _531  and  _534
REMARK  219  A    between atoms: _534  and  _535
REMARK  220  A    between atoms: _540  and  _542
REMARK  221  A    between atoms: _542  and  _543
REMARK  222  A    between atoms: _542  and  _545
REMARK  223  A    between atoms: _545  and  _546
REMARK  224  A    between atoms: _549  and  _551
REMARK  225  A    between atoms: _551  and  _552
REMARK  226  A    between atoms: _551  and  _554
REMARK  227  A    between atoms: _554  and  _555
REMARK  228  A    between atoms: _558  and  _560
REMARK  229  A    between atoms: _560  and  _561
REMARK  230  A    between atoms: _563  and  _565
REMARK  231  A    between atoms: _565  and  _566
REMARK  232  A    between atoms: _565  and  _568
REMARK  233  A    between atoms: _568  and  _569
REMARK  234  A    between atoms: _569  and  _570
REMARK  235  A    between atoms: _570  and  _571
REMARK  236  A    between atoms: _580  and  _582
REMARK  237  A    between atoms: _582  and  _583
REMARK  238  A    between atoms: _582  and  _585
REMARK  239  A    between atoms: _585  and  _586
REMARK                            x       y       z     vdW  Elec       q    Type
REMARK                         _______ _______ _______ _____ _____    ______ ____
ROOT
ATOM      1  O   HOH     1      17.878  20.818  16.848  0.00  0.00    +0.000 OA
ENDROOT
TORSDOF 0
REMARK  Name = ../refined-set-2016/2aod/2aod_pocket.pdb
REMARK  239 active torsions:
REMARK  status: ('A' for Active; 'I' for Inactive)
REMARK    1  A    between atoms: _1  and  _3
REMARK    2  A    between atoms: _3  and  _4
REMARK    3  A    between atoms: _3  and  _6
REMARK    4  A    between atoms: _6  and  _7
REMARK    5  A    between atoms: _7  and  _8
REMARK    6  A    between atoms: _8  and  _9
REMARK    7  A    between atoms: _18  and  _20
REMARK    8  A    between atoms: _20  and  _21
REMARK    9  A    between atoms: _20  and  _23
REMARK   10  A    between atoms: _23  and  _24
REMARK   11  A    between atoms: _27  and  _29
REMARK   12  A    between atoms: _29  and  _30
REMARK   13  A    between atoms: _29  and  _32
REMARK   14  A    between atoms: _32  and  _33
REMARK   15  A    between atoms: _33  and  _34
REMARK   16  A    between atoms: _37  and  _39
REMARK   17  A    between atoms: _39  and  _40
REMARK   18  A    between atoms: _39  and  _42
REMARK   19  A    between atoms: _42  and  _43
REMARK   20  A    between atoms: _46  and  _48
REMARK   21  A    between atoms: _48  and  _49
REMARK   22  A    between atoms: _48  and  _51
REMARK   23  A    between atoms: _51  and  _52
REMARK   24  A    between atoms: _55  and  _57
REMARK   25  A    between atoms: _57  and  _58
REMARK   26  A    between atoms: _57  and  _60
REMARK   27  A    between atoms: _60  and  _61
REMARK   28  A    between atoms: _64  and  _66
REMARK   29  A    between atoms: _66  and  _67
REMARK   30  A    between atoms: _69  and  _71
REMARK   31  A    between atoms: _71  and  _72
REMARK   32  A    between atoms: _75  and  _77
REMARK   33  A    between atoms: _77  and  _78
REMARK   34  A    between atoms: _77  and  _80
REMARK   35  A    between atoms: _80  and  _81
REMARK   36  A    between atoms: _84  and  _86
REMARK   37  A    between atoms: _86  and  _87
REMARK   38  A    between atoms: _86  and  _89
REMARK   39  A    between atoms: _89  and  _90
REMARK   40  A    between atoms: _93  and  _95
REMARK   41  A    between atoms: _95  and  _96
REMARK   42  A    between atoms: _95  and  _98
REMARK   43  A    between atoms: _98  and  _99
REMARK   44  A    between atoms: _102  and  _104
REMARK   45  A    between atoms: _104  and  _105
REMARK   46  A    between atoms: _104  and  _107
REMARK   47  A    between atoms: _110  and  _112
REMARK   48  A    between atoms: _112  and  _113
REMARK   49  A    between atoms: _112  and  _115
REMARK   50  A    between atoms: _115  and  _116
REMARK   51  A    between atoms: _116  and  _117
REMARK   52  A    between atoms: _117  and  _118
REMARK   53  A    between atoms: _118  and  _119
REMARK   54  A    between atoms: _123  and  _125
REMARK   55  A    between atoms: _125  and  _126
REMARK   56  A    between atoms: _125  and  _128
REMARK   57  A    between atoms: _128  and  _129
REMARK   58  A    between atoms: _129  and  _130
REMARK   59  A    between atoms: _132  and  _134
REMARK   60  A    between atoms: _134  and  _135
REMARK   61  A    between atoms: _134  and  _137
REMARK   62  A    between atoms: _137  and  _138
REMARK   63  A    between atoms: _141  and  _143
REMARK   64  A    between atoms: _143  and  _144
REMARK   65  A    between atoms: _146  and  _148
REMARK   66  A    between atoms: _148  and  _149
REMARK   67  A    between atoms: _151  and  _153
REMARK   68  A    between atoms: _153  and  _154
REMARK   69  A    between atoms: _153  and  _156
REMARK   70  A    between atoms: _156  and  _157
REMARK   71  A    between atoms: _160  and  _162
REMARK   72  A    between atoms: _162  and  _163
REMARK   73  A    between atoms: _165  and  _167
REMARK   74  A    between atoms: _167  and  _168
REMARK   75  A    between atoms: _170  and  _172
REMARK   76  A    between atoms: _172  and  _173
REMARK   77  A    between atoms: _172  and  _175
REMARK   78  A    between atoms: _175  and  _176
REMARK   79  A    between atoms: _182  and  _184
REMARK   80  A    between atoms: _184  and  _185
REMARK   81  A    between atoms: _184  and  _187
REMARK   82  A    between atoms: _187  and  _188
REMARK   83  A    between atoms: _191  and  _193
REMARK   84  A    between atoms: _193  and  _194
REMARK   85  A    between atoms: _193  and  _196
REMARK   86  A    between atoms: _199  and  _201
REMARK   87  A    between atoms: _201  and  _202
REMARK   88  A    between atoms: _201  and  _204
REMARK   89  A    between atoms: _204  and  _205
REMARK   90  A    between atoms: _209  and  _210
REMARK   91  A    between atoms: _215  and  _217
REMARK   92  A    between atoms: _217  and  _218
REMARK   93  A    between atoms: _217  and  _220
REMARK   94  A    between atoms: _220  and  _221
REMARK   95  A    between atoms: _225  and  _226
REMARK   96  A    between atoms: _231  and  _233
REMARK   97  A    between atoms: _233  and  _234
REMARK   98  A    between atoms: _233  and  _236
REMARK   99  A    between atoms: _239  and  _241
REMARK  100  A    between atoms: _241  and  _242
REMARK  101  A    between atoms: _241  and  _244
REMARK  102  A    between atoms: _244  and  _245
REMARK  103  A    between atoms: _250  and  _252
REMARK  104  A    between atoms: _252  and  _253
REMARK  105  A    between atoms: _252  and  _255
REMARK  106  A    between atoms: _255  and  _256
REMARK  107  A    between atoms: _259  and  _261
REMARK  108  A    between atoms: _261  and  _262
REMARK  109  A    between atoms: _261  and  _264
REMARK  110  A    between atoms: _264  and  _265
REMARK  111  A    between atoms: _268  and  _270
REMARK  112  A    between atoms: _270  and  _271
REMARK  113  A    between atoms: _273  and  _275
REMARK  114  A    between atoms: _275  and  _276
REMARK  115  A    between atoms: _275  and  _278
REMARK  116  A    between atoms: _278  and  _279
REMARK  117  A    between atoms: _279  and  _280
REMARK  118  A    between atoms: _280  and  _281
REMARK  119  A    between atoms: _290  and  _292
REMARK  120  A    between atoms: _292  and  _293
REMARK  121  A    between atoms: _292  and  _295
REMARK  122  A    between atoms: _295  and  _296
REMARK  123  A    between atoms: _301  and  _303
REMARK  124  A    between atoms: _303  and  _304
REMARK  125  A    between atoms: _303  and  _306
REMARK  126  A    between atoms: _306  and  _307
REMARK  127  A    between atoms: _307  and  _308
REMARK  128  A    between atoms: _308  and  _309
REMARK  129  A    between atoms: _318  and  _320
REMARK  130  A    between atoms: _320  and  _321
REMARK  131  A    between atoms: _320  and  _323
REMARK  132  A    between atoms: _323  and  _324
REMARK  133  A    between atoms: _327  and  _329
REMARK  134  A    between atoms: _329  and  _330
REMARK  135  A    between atoms: _329  and  _332
REMARK  136  A    between atoms: _332  and  _333
REMARK  137  A    between atoms: _336  and  _338
REMARK  138  A    between atoms: _338  and  _339
REMARK  139  A    between atoms: _338  and  _341
REMARK  140  A    between atoms: _341  and  _342
REMARK  141  A    between atoms: _345  and  _347
REMARK  142  A    between atoms: _347  and  _348
REMARK  143  A    between atoms: _347  and  _350
REMARK  144  A    between atoms: _350  and  _351
REMARK  145  A    between atoms: _354  and  _356
REMARK  146  A    between atoms: _356  and  _357
REMARK  147  A    between atoms: _359  and  _361
REMARK  148  A    between atoms: _361  and  _362
REMARK  149  A    between atoms: _365  and  _367
REMARK  150  A    between atoms: _367  and  _368
REMARK  151  A    between atoms: _367  and  _370
REMARK  152  A    between atoms: _370  and  _371
REMARK  153  A    between atoms: _374  and  _376
REMARK  154  A    between atoms: _376  and  _377
REMARK  155  A    between atoms: _376  and  _379
REMARK  156  A    between atoms: _379  and  _380
REMARK  157  A    between atoms: _383  and  _385
REMARK  158  A    between atoms: _385  and  _386
REMARK  159  A    between atoms: _385  and  _388
REMARK  160  A    between atoms: _388  and  _389
REMARK  161  A    between atoms: _392  and  _394
REMARK  162  A    between atoms: _394  and  _395
REMARK  163  A    between atoms: _394  and  _397
REMARK  164  A    between atoms: _400  and  _402
REMARK  165  A    between atoms: _402  and  _403
REMARK  166  A    between atoms: _402  and  _405
REMARK  167  A    between atoms: _405  and  _406
REMARK  168  A    between atoms: _406  and  _407
REMARK  169  A    between atoms: _407  and  _408
REMARK  170  A    between atoms: _408  and  _409
REMARK  171  A    between atoms: _413  and  _415
REMARK  172  A    between atoms: _415  and  _416
REMARK  173  A    between atoms: _415  and  _418
REMARK  174  A    between atoms: _418  and  _419
REMARK  175  A    between atoms: _419  and  _420
REMARK  176  A    between atoms: _422  and  _424
REMARK  177  A    between atoms: _424  and  _425
REMARK  178  A    between atoms: _424  and  _427
REMARK  179  A    between atoms: _427  and  _428
REMARK  180  A    between atoms: _431  and  _433
REMARK  181  A    between atoms: _433  and  _434
REMARK  182  A    between atoms: _436  and  _438
REMARK  183  A    between atoms: _438  and  _439
REMARK  184  A    between atoms: _441  and  _443
REMARK  185  A    between atoms: _443  and  _444
REMARK  186  A    between atoms: _443  and  _446
REMARK  187  A    between atoms: _446  and  _447
REMARK  188  A    between atoms: _450  and  _452
REMARK  189  A    between atoms: _452  and  _453
REMARK  190  A    between atoms: _455  and  _457
REMARK  191  A    between atoms: _457  and  _458
REMARK  192  A    between atoms: _460  and  _462
REMARK  193  A    between atoms: _462  and  _463
REMARK  194  A    between atoms: _462  and  _465
REMARK  195  A    between atoms: _465  and  _466
REMARK  196  A    between atoms: _472  and  _474
REMARK  197  A    between atoms: _474  and  _475
REMARK  198  A    between atoms: _474  and  _477
REMARK  199  A    between atoms: _477  and  _478
REMARK  200  A    between atoms: _481  and  _483
REMARK  201  A    between atoms: _483  and  _484
REMARK  202  A    between atoms: _483  and  _486
REMARK  203  A    between atoms: _489  and  _491
REMARK  204  A    between atoms: _491  and  _492
REMARK  205  A    between atoms: _491  and  _494
REMARK  206  A    between atoms: _494  and  _495
REMARK  207  A    between atoms: _499  and  _500
REMARK  208  A    between atoms: _505  and  _507
REMARK  209  A    between atoms: _507  and  _508
REMARK  210  A    between atoms: _507  and  _510
REMARK  211  A    between atoms: _510  and  _511
REMARK  212  A    between atoms: _515  and  _516
REMARK  213  A    between atoms: _521  and  _523
REMARK  214  A    between atoms: _523  and  _524
REMARK  215  A    between atoms: _523  and  _526
REMARK  216  A    between atoms: _529  and  _531
REMARK  217  A    between atoms: _531  and  _532
REMARK  218  A    between atoms: _531  and  _534
REMARK  219  A    between atoms: _534  and  _535
REMARK  220  A    between atoms: _540  and  _542
REMARK  221  A    between atoms: _542  and  _543
REMARK  222  A    between atoms: _542  and  _545
REMARK  223  A    between atoms: _545  and  _546
REMARK  224  A    between atoms: _549  and  _551
REMARK  225  A    between atoms: _551  and  _552
REMARK  226  A    between atoms: _551  and  _554
REMARK  227  A    between atoms: _554  and  _555
REMARK  228  A    between atoms: _558  and  _560
REMARK  229  A    between atoms: _560  and  _561
REMARK  230  A    between atoms: _563  and  _565
REMARK  231  A    between atoms: _565  and  _566
REMARK  232  A    between atoms: _565  and  _568
REMARK  233  A    between atoms: _568  and  _569
REMARK  234  A    between atoms: _569  and  _570
REMARK  235  A    between atoms: _570  and  _571
REMARK  236  A    between atoms: _580  and  _582
REMARK  237  A    between atoms: _582  and  _583
REMARK  238  A    between atoms: _582  and  _585
REMARK  239  A    between atoms: _585  and  _586
REMARK                            x       y       z     vdW  Elec       q    Type
REMARK                         _______ _______ _______ _____ _____    ______ ____
ROOT
ATOM      1  O   HOH     1       9.221   7.717  19.260  0.00  0.00    +0.000 OA
ENDROOT
TORSDOF 0
REMARK  Name = ../refined-set-2016/2aod/2aod_pocket.pdb
REMARK  239 active torsions:
REMARK  status: ('A' for Active; 'I' for Inactive)
REMARK    1  A    between atoms: _1  and  _3
REMARK    2  A    between atoms: _3  and  _4
REMARK    3  A    between atoms: _3  and  _6
REMARK    4  A    between atoms: _6  and  _7
REMARK    5  A    between atoms: _7  and  _8
REMARK    6  A    between atoms: _8  and  _9
REMARK    7  A    between atoms: _18  and  _20
REMARK    8  A    between atoms: _20  and  _21
REMARK    9  A    between atoms: _20  and  _23
REMARK   10  A    between atoms: _23  and  _24
REMARK   11  A    between atoms: _27  and  _29
REMARK   12  A    between atoms: _29  and  _30
REMARK   13  A    between atoms: _29  and  _32
REMARK   14  A    between atoms: _32  and  _33
REMARK   15  A    between atoms: _33  and  _34
REMARK   16  A    between atoms: _37  and  _39
REMARK   17  A    between atoms: _39  and  _40
REMARK   18  A    between atoms: _39  and  _42
REMARK   19  A    between atoms: _42  and  _43
REMARK   20  A    between atoms: _46  and  _48
REMARK   21  A    between atoms: _48  and  _49
REMARK   22  A    between atoms: _48  and  _51
REMARK   23  A    between atoms: _51  and  _52
REMARK   24  A    between atoms: _55  and  _57
REMARK   25  A    between atoms: _57  and  _58
REMARK   26  A    between atoms: _57  and  _60
REMARK   27  A    between atoms: _60  and  _61
REMARK   28  A    between atoms: _64  and  _66
REMARK   29  A    between atoms: _66  and  _67
REMARK   30  A    between atoms: _69  and  _71
REMARK   31  A    between atoms: _71  and  _72
REMARK   32  A    between atoms: _75  and  _77
REMARK   33  A    between atoms: _77  and  _78
REMARK   34  A    between atoms: _77  and  _80
REMARK   35  A    between atoms: _80  and  _81
REMARK   36  A    between atoms: _84  and  _86
REMARK   37  A    between atoms: _86  and  _87
REMARK   38  A    between atoms: _86  and  _89
REMARK   39  A    between atoms: _89  and  _90
REMARK   40  A    between atoms: _93  and  _95
REMARK   41  A    between atoms: _95  and  _96
REMARK   42  A    between atoms: _95  and  _98
REMARK   43  A    between atoms: _98  and  _99
REMARK   44  A    between atoms: _102  and  _104
REMARK   45  A    between atoms: _104  and  _105
REMARK   46  A    between atoms: _104  and  _107
REMARK   47  A    between atoms: _110  and  _112
REMARK   48  A    between atoms: _112  and  _113
REMARK   49  A    between atoms: _112  and  _115
REMARK   50  A    between atoms: _115  and  _116
REMARK   51  A    between atoms: _116  and  _117
REMARK   52  A    between atoms: _117  and  _118
REMARK   53  A    between atoms: _118  and  _119
REMARK   54  A    between atoms: _123  and  _125
REMARK   55  A    between atoms: _125  and  _126
REMARK   56  A    between atoms: _125  and  _128
REMARK   57  A    between atoms: _128  and  _129
REMARK   58  A    between atoms: _129  and  _130
REMARK   59  A    between atoms: _132  and  _134
REMARK   60  A    between atoms: _134  and  _135
REMARK   61  A    between atoms: _134  and  _137
REMARK   62  A    between atoms: _137  and  _138
REMARK   63  A    between atoms: _141  and  _143
REMARK   64  A    between atoms: _143  and  _144
REMARK   65  A    between atoms: _146  and  _148
REMARK   66  A    between atoms: _148  and  _149
REMARK   67  A    between atoms: _151  and  _153
REMARK   68  A    between atoms: _153  and  _154
REMARK   69  A    between atoms: _153  and  _156
REMARK   70  A    between atoms: _156  and  _157
REMARK   71  A    between atoms: _160  and  _162
REMARK   72  A    between atoms: _162  and  _163
REMARK   73  A    between atoms: _165  and  _167
REMARK   74  A    between atoms: _167  and  _168
REMARK   75  A    between atoms: _170  and  _172
REMARK   76  A    between atoms: _172  and  _173
REMARK   77  A    between atoms: _172  and  _175
REMARK   78  A    between atoms: _175  and  _176
REMARK   79  A    between atoms: _182  and  _184
REMARK   80  A    between atoms: _184  and  _185
REMARK   81  A    between atoms: _184  and  _187
REMARK   82  A    between atoms: _187  and  _188
REMARK   83  A    between atoms: _191  and  _193
REMARK   84  A    between atoms: _193  and  _194
REMARK   85  A    between atoms: _193  and  _196
REMARK   86  A    between atoms: _199  and  _201
REMARK   87  A    between atoms: _201  and  _202
REMARK   88  A    between atoms: _201  and  _204
REMARK   89  A    between atoms: _204  and  _205
REMARK   90  A    between atoms: _209  and  _210
REMARK   91  A    between atoms: _215  and  _217
REMARK   92  A    between atoms: _217  and  _218
REMARK   93  A    between atoms: _217  and  _220
REMARK   94  A    between atoms: _220  and  _221
REMARK   95  A    between atoms: _225  and  _226
REMARK   96  A    between atoms: _231  and  _233
REMARK   97  A    between atoms: _233  and  _234
REMARK   98  A    between atoms: _233  and  _236
REMARK   99  A    between atoms: _239  and  _241
REMARK  100  A    between atoms: _241  and  _242
REMARK  101  A    between atoms: _241  and  _244
REMARK  102  A    between atoms: _244  and  _245
REMARK  103  A    between atoms: _250  and  _252
REMARK  104  A    between atoms: _252  and  _253
REMARK  105  A    between atoms: _252  and  _255
REMARK  106  A    between atoms: _255  and  _256
REMARK  107  A    between atoms: _259  and  _261
REMARK  108  A    between atoms: _261  and  _262
REMARK  109  A    between atoms: _261  and  _264
REMARK  110  A    between atoms: _264  and  _265
REMARK  111  A    between atoms: _268  and  _270
REMARK  112  A    between atoms: _270  and  _271
REMARK  113  A    between atoms: _273  and  _275
REMARK  114  A    between atoms: _275  and  _276
REMARK  115  A    between atoms: _275  and  _278
REMARK  116  A    between atoms: _278  and  _279
REMARK  117  A    between atoms: _279  and  _280
REMARK  118  A    between atoms: _280  and  _281
REMARK  119  A    between atoms: _290  and  _292
REMARK  120  A    between atoms: _292  and  _293
REMARK  121  A    between atoms: _292  and  _295
REMARK  122  A    between atoms: _295  and  _296
REMARK  123  A    between atoms: _301  and  _303
REMARK  124  A    between atoms: _303  and  _304
REMARK  125  A    between atoms: _303  and  _306
REMARK  126  A    between atoms: _306  and  _307
REMARK  127  A    between atoms: _307  and  _308
REMARK  128  A    between atoms: _308  and  _309
REMARK  129  A    between atoms: _318  and  _320
REMARK  130  A    between atoms: _320  and  _321
REMARK  131  A    between atoms: _320  and  _323
REMARK  132  A    between atoms: _323  and  _324
REMARK  133  A    between atoms: _327  and  _329
REMARK  134  A    between atoms: _329  and  _330
REMARK  135  A    between atoms: _329  and  _332
REMARK  136  A    between atoms: _332  and  _333
REMARK  137  A    between atoms: _336  and  _338
REMARK  138  A    between atoms: _338  and  _339
REMARK  139  A    between atoms: _338  and  _341
REMARK  140  A    between atoms: _341  and  _342
REMARK  141  A    between atoms: _345  and  _347
REMARK  142  A    between atoms: _347  and  _348
REMARK  143  A    between atoms: _347  and  _350
REMARK  144  A    between atoms: _350  and  _351
REMARK  145  A    between atoms: _354  and  _356
REMARK  146  A    between atoms: _356  and  _357
REMARK  147  A    between atoms: _359  and  _361
REMARK  148  A    between atoms: _361  and  _362
REMARK  149  A    between atoms: _365  and  _367
REMARK  150  A    between atoms: _367  and  _368
REMARK  151  A    between atoms: _367  and  _370
REMARK  152  A    between atoms: _370  and  _371
REMARK  153  A    between atoms: _374  and  _376
REMARK  154  A    between atoms: _376  and  _377
REMARK  155  A    between atoms: _376  and  _379
REMARK  156  A    between atoms: _379  and  _380
REMARK  157  A    between atoms: _383  and  _385
REMARK  158  A    between atoms: _385  and  _386
REMARK  159  A    between atoms: _385  and  _388
REMARK  160  A    between atoms: _388  and  _389
REMARK  161  A    between atoms: _392  and  _394
REMARK  162  A    between atoms: _394  and  _395
REMARK  163  A    between atoms: _394  and  _397
REMARK  164  A    between atoms: _400  and  _402
REMARK  165  A    between atoms: _402  and  _403
REMARK  166  A    between atoms: _402  and  _405
REMARK  167  A    between atoms: _405  and  _406
REMARK  168  A    between atoms: _406  and  _407
REMARK  169  A    between atoms: _407  and  _408
REMARK  170  A    between atoms: _408  and  _409
REMARK  171  A    between atoms: _413  and  _415
REMARK  172  A    between atoms: _415  and  _416
REMARK  173  A    between atoms: _415  and  _418
REMARK  174  A    between atoms: _418  and  _419
REMARK  175  A    between atoms: _419  and  _420
REMARK  176  A    between atoms: _422  and  _424
REMARK  177  A    between atoms: _424  and  _425
REMARK  178  A    between atoms: _424  and  _427
REMARK  179  A    between atoms: _427  and  _428
REMARK  180  A    between atoms: _431  and  _433
REMARK  181  A    between atoms: _433  and  _434
REMARK  182  A    between atoms: _436  and  _438
REMARK  183  A    between atoms: _438  and  _439
REMARK  184  A    between atoms: _441  and  _443
REMARK  185  A    between atoms: _443  and  _444
REMARK  186  A    between atoms: _443  and  _446
REMARK  187  A    between atoms: _446  and  _447
REMARK  188  A    between atoms: _450  and  _452
REMARK  189  A    between atoms: _452  and  _453
REMARK  190  A    between atoms: _455  and  _457
REMARK  191  A    between atoms: _457  and  _458
REMARK  192  A    between atoms: _460  and  _462
REMARK  193  A    between atoms: _462  and  _463
REMARK  194  A    between atoms: _462  and  _465
REMARK  195  A    between atoms: _465  and  _466
REMARK  196  A    between atoms: _472  and  _474
REMARK  197  A    between atoms: _474  and  _475
REMARK  198  A    between atoms: _474  and  _477
REMARK  199  A    between atoms: _477  and  _478
REMARK  200  A    between atoms: _481  and  _483
REMARK  201  A    between atoms: _483  and  _484
REMARK  202  A    between atoms: _483  and  _486
REMARK  203  A    between atoms: _489  and  _491
REMARK  204  A    between atoms: _491  and  _492
REMARK  205  A    between atoms: _491  and  _494
REMARK  206  A    between atoms: _494  and  _495
REMARK  207  A    between atoms: _499  and  _500
REMARK  208  A    between atoms: _505  and  _507
REMARK  209  A    between atoms: _507  and  _508
REMARK  210  A    between atoms: _507  and  _510
REMARK  211  A    between atoms: _510  and  _511
REMARK  212  A    between atoms: _515  and  _516
REMARK  213  A    between atoms: _521  and  _523
REMARK  214  A    between atoms: _523  and  _524
REMARK  215  A    between atoms: _523  and  _526
REMARK  216  A    between atoms: _529  and  _531
REMARK  217  A    between atoms: _531  and  _532
REMARK  218  A    between atoms: _531  and  _534
REMARK  219  A    between atoms: _534  and  _535
REMARK  220  A    between atoms: _540  and  _542
REMARK  221  A    between atoms: _542  and  _543
REMARK  222  A    between atoms: _542  and  _545
REMARK  223  A    between atoms: _545  and  _546
REMARK  224  A    between atoms: _549  and  _551
REMARK  225  A    between atoms: _551  and  _552
REMARK  226  A    between atoms: _551  and  _554
REMARK  227  A    between atoms: _554  and  _555
REMARK  228  A    between atoms: _558  and  _560
REMARK  229  A    between atoms: _560  and  _561
REMARK  230  A    between atoms: _563  and  _565
REMARK  231  A    between atoms: _565  and  _566
REMARK  232  A    between atoms: _565  and  _568
REMARK  233  A    between atoms: _568  and  _569
REMARK  234  A    between atoms: _569  and  _570
REMARK  235  A    between atoms: _570  and  _571
REMARK  236  A    between atoms: _580  and  _582
REMARK  237  A    between atoms: _582  and  _583
REMARK  238  A    between atoms: _582  and  _585
REMARK  239  A    between atoms: _585  and  _586
REMARK                            x       y       z     vdW  Elec       q    Type
REMARK                         _______ _______ _______ _____ _____    ______ ____
ROOT
ATOM      1  O   HOH     1      21.980  26.959  22.607  0.00  0.00    +0.000 OA
ENDROOT
TORSDOF 0
REMARK  Name = ../refined-set-2016/2aod/2aod_pocket.pdb
REMARK  239 active torsions:
REMARK  status: ('A' for Active; 'I' for Inactive)
REMARK    1  A    between atoms: _1  and  _3
REMARK    2  A    between atoms: _3  and  _4
REMARK    3  A    between atoms: _3  and  _6
REMARK    4  A    between atoms: _6  and  _7
REMARK    5  A    between atoms: _7  and  _8
REMARK    6  A    between atoms: _8  and  _9
REMARK    7  A    between atoms: _18  and  _20
REMARK    8  A    between atoms: _20  and  _21
REMARK    9  A    between atoms: _20  and  _23
REMARK   10  A    between atoms: _23  and  _24
REMARK   11  A    between atoms: _27  and  _29
REMARK   12  A    between atoms: _29  and  _30
REMARK   13  A    between atoms: _29  and  _32
REMARK   14  A    between atoms: _32  and  _33
REMARK   15  A    between atoms: _33  and  _34
REMARK   16  A    between atoms: _37  and  _39
REMARK   17  A    between atoms: _39  and  _40
REMARK   18  A    between atoms: _39  and  _42
REMARK   19  A    between atoms: _42  and  _43
REMARK   20  A    between atoms: _46  and  _48
REMARK   21  A    between atoms: _48  and  _49
REMARK   22  A    between atoms: _48  and  _51
REMARK   23  A    between atoms: _51  and  _52
REMARK   24  A    between atoms: _55  and  _57
REMARK   25  A    between atoms: _57  and  _58
REMARK   26  A    between atoms: _57  and  _60
REMARK   27  A    between atoms: _60  and  _61
REMARK   28  A    between atoms: _64  and  _66
REMARK   29  A    between atoms: _66  and  _67
REMARK   30  A    between atoms: _69  and  _71
REMARK   31  A    between atoms: _71  and  _72
REMARK   32  A    between atoms: _75  and  _77
REMARK   33  A    between atoms: _77  and  _78
REMARK   34  A    between atoms: _77  and  _80
REMARK   35  A    between atoms: _80  and  _81
REMARK   36  A    between atoms: _84  and  _86
REMARK   37  A    between atoms: _86  and  _87
REMARK   38  A    between atoms: _86  and  _89
REMARK   39  A    between atoms: _89  and  _90
REMARK   40  A    between atoms: _93  and  _95
REMARK   41  A    between atoms: _95  and  _96
REMARK   42  A    between atoms: _95  and  _98
REMARK   43  A    between atoms: _98  and  _99
REMARK   44  A    between atoms: _102  and  _104
REMARK   45  A    between atoms: _104  and  _105
REMARK   46  A    between atoms: _104  and  _107
REMARK   47  A    between atoms: _110  and  _112
REMARK   48  A    between atoms: _112  and  _113
REMARK   49  A    between atoms: _112  and  _115
REMARK   50  A    between atoms: _115  and  _116
REMARK   51  A    between atoms: _116  and  _117
REMARK   52  A    between atoms: _117  and  _118
REMARK   53  A    between atoms: _118  and  _119
REMARK   54  A    between atoms: _123  and  _125
REMARK   55  A    between atoms: _125  and  _126
REMARK   56  A    between atoms: _125  and  _128
REMARK   57  A    between atoms: _128  and  _129
REMARK   58  A    between atoms: _129  and  _130
REMARK   59  A    between atoms: _132  and  _134
REMARK   60  A    between atoms: _134  and  _135
REMARK   61  A    between atoms: _134  and  _137
REMARK   62  A    between atoms: _137  and  _138
REMARK   63  A    between atoms: _141  and  _143
REMARK   64  A    between atoms: _143  and  _144
REMARK   65  A    between atoms: _146  and  _148
REMARK   66  A    between atoms: _148  and  _149
REMARK   67  A    between atoms: _151  and  _153
REMARK   68  A    between atoms: _153  and  _154
REMARK   69  A    between atoms: _153  and  _156
REMARK   70  A    between atoms: _156  and  _157
REMARK   71  A    between atoms: _160  and  _162
REMARK   72  A    between atoms: _162  and  _163
REMARK   73  A    between atoms: _165  and  _167
REMARK   74  A    between atoms: _167  and  _168
REMARK   75  A    between atoms: _170  and  _172
REMARK   76  A    between atoms: _172  and  _173
REMARK   77  A    between atoms: _172  and  _175
REMARK   78  A    between atoms: _175  and  _176
REMARK   79  A    between atoms: _182  and  _184
REMARK   80  A    between atoms: _184  and  _185
REMARK   81  A    between atoms: _184  and  _187
REMARK   82  A    between atoms: _187  and  _188
REMARK   83  A    between atoms: _191  and  _193
REMARK   84  A    between atoms: _193  and  _194
REMARK   85  A    between atoms: _193  and  _196
REMARK   86  A    between atoms: _199  and  _201
REMARK   87  A    between atoms: _201  and  _202
REMARK   88  A    between atoms: _201  and  _204
REMARK   89  A    between atoms: _204  and  _205
REMARK   90  A    between atoms: _209  and  _210
REMARK   91  A    between atoms: _215  and  _217
REMARK   92  A    between atoms: _217  and  _218
REMARK   93  A    between atoms: _217  and  _220
REMARK   94  A    between atoms: _220  and  _221
REMARK   95  A    between atoms: _225  and  _226
REMARK   96  A    between atoms: _231  and  _233
REMARK   97  A    between atoms: _233  and  _234
REMARK   98  A    between atoms: _233  and  _236
REMARK   99  A    between atoms: _239  and  _241
REMARK  100  A    between atoms: _241  and  _242
REMARK  101  A    between atoms: _241  and  _244
REMARK  102  A    between atoms: _244  and  _245
REMARK  103  A    between atoms: _250  and  _252
REMARK  104  A    between atoms: _252  and  _253
REMARK  105  A    between atoms: _252  and  _255
REMARK  106  A    between atoms: _255  and  _256
REMARK  107  A    between atoms: _259  and  _261
REMARK  108  A    between atoms: _261  and  _262
REMARK  109  A    between atoms: _261  and  _264
REMARK  110  A    between atoms: _264  and  _265
REMARK  111  A    between atoms: _268  and  _270
REMARK  112  A    between atoms: _270  and  _271
REMARK  113  A    between atoms: _273  and  _275
REMARK  114  A    between atoms: _275  and  _276
REMARK  115  A    between atoms: _275  and  _278
REMARK  116  A    between atoms: _278  and  _279
REMARK  117  A    between atoms: _279  and  _280
REMARK  118  A    between atoms: _280  and  _281
REMARK  119  A    between atoms: _290  and  _292
REMARK  120  A    between atoms: _292  and  _293
REMARK  121  A    between atoms: _292  and  _295
REMARK  122  A    between atoms: _295  and  _296
REMARK  123  A    between atoms: _301  and  _303
REMARK  124  A    between atoms: _303  and  _304
REMARK  125  A    between atoms: _303  and  _306
REMARK  126  A    between atoms: _306  and  _307
REMARK  127  A    between atoms: _307  and  _308
REMARK  128  A    between atoms: _308  and  _309
REMARK  129  A    between atoms: _318  and  _320
REMARK  130  A    between atoms: _320  and  _321
REMARK  131  A    between atoms: _320  and  _323
REMARK  132  A    between atoms: _323  and  _324
REMARK  133  A    between atoms: _327  and  _329
REMARK  134  A    between atoms: _329  and  _330
REMARK  135  A    between atoms: _329  and  _332
REMARK  136  A    between atoms: _332  and  _333
REMARK  137  A    between atoms: _336  and  _338
REMARK  138  A    between atoms: _338  and  _339
REMARK  139  A    between atoms: _338  and  _341
REMARK  140  A    between atoms: _341  and  _342
REMARK  141  A    between atoms: _345  and  _347
REMARK  142  A    between atoms: _347  and  _348
REMARK  143  A    between atoms: _347  and  _350
REMARK  144  A    between atoms: _350  and  _351
REMARK  145  A    between atoms: _354  and  _356
REMARK  146  A    between atoms: _356  and  _357
REMARK  147  A    between atoms: _359  and  _361
REMARK  148  A    between atoms: _361  and  _362
REMARK  149  A    between atoms: _365  and  _367
REMARK  150  A    between atoms: _367  and  _368
REMARK  151  A    between atoms: _367  and  _370
REMARK  152  A    between atoms: _370  and  _371
REMARK  153  A    between atoms: _374  and  _376
REMARK  154  A    between atoms: _376  and  _377
REMARK  155  A    between atoms: _376  and  _379
REMARK  156  A    between atoms: _379  and  _380
REMARK  157  A    between atoms: _383  and  _385
REMARK  158  A    between atoms: _385  and  _386
REMARK  159  A    between atoms: _385  and  _388
REMARK  160  A    between atoms: _388  and  _389
REMARK  161  A    between atoms: _392  and  _394
REMARK  162  A    between atoms: _394  and  _395
REMARK  163  A    between atoms: _394  and  _397
REMARK  164  A    between atoms: _400  and  _402
REMARK  165  A    between atoms: _402  and  _403
REMARK  166  A    between atoms: _402  and  _405
REMARK  167  A    between atoms: _405  and  _406
REMARK  168  A    between atoms: _406  and  _407
REMARK  169  A    between atoms: _407  and  _408
REMARK  170  A    between atoms: _408  and  _409
REMARK  171  A    between atoms: _413  and  _415
REMARK  172  A    between atoms: _415  and  _416
REMARK  173  A    between atoms: _415  and  _418
REMARK  174  A    between atoms: _418  and  _419
REMARK  175  A    between atoms: _419  and  _420
REMARK  176  A    between atoms: _422  and  _424
REMARK  177  A    between atoms: _424  and  _425
REMARK  178  A    between atoms: _424  and  _427
REMARK  179  A    between atoms: _427  and  _428
REMARK  180  A    between atoms: _431  and  _433
REMARK  181  A    between atoms: _433  and  _434
REMARK  182  A    between atoms: _436  and  _438
REMARK  183  A    between atoms: _438  and  _439
REMARK  184  A    between atoms: _441  and  _443
REMARK  185  A    between atoms: _443  and  _444
REMARK  186  A    between atoms: _443  and  _446
REMARK  187  A    between atoms: _446  and  _447
REMARK  188  A    between atoms: _450  and  _452
REMARK  189  A    between atoms: _452  and  _453
REMARK  190  A    between atoms: _455  and  _457
REMARK  191  A    between atoms: _457  and  _458
REMARK  192  A    between atoms: _460  and  _462
REMARK  193  A    between atoms: _462  and  _463
REMARK  194  A    between atoms: _462  and  _465
REMARK  195  A    between atoms: _465  and  _466
REMARK  196  A    between atoms: _472  and  _474
REMARK  197  A    between atoms: _474  and  _475
REMARK  198  A    between atoms: _474  and  _477
REMARK  199  A    between atoms: _477  and  _478
REMARK  200  A    between atoms: _481  and  _483
REMARK  201  A    between atoms: _483  and  _484
REMARK  202  A    between atoms: _483  and  _486
REMARK  203  A    between atoms: _489  and  _491
REMARK  204  A    between atoms: _491  and  _492
REMARK  205  A    between atoms: _491  and  _494
REMARK  206  A    between atoms: _494  and  _495
REMARK  207  A    between atoms: _499  and  _500
REMARK  208  A    between atoms: _505  and  _507
REMARK  209  A    between atoms: _507  and  _508
REMARK  210  A    between atoms: _507  and  _510
REMARK  211  A    between atoms: _510  and  _511
REMARK  212  A    between atoms: _515  and  _516
REMARK  213  A    between atoms: _521  and  _523
REMARK  214  A    between atoms: _523  and  _524
REMARK  215  A    between atoms: _523  and  _526
REMARK  216  A    between atoms: _529  and  _531
REMARK  217  A    between atoms: _531  and  _532
REMARK  218  A    between atoms: _531  and  _534
REMARK  219  A    between atoms: _534  and  _535
REMARK  220  A    between atoms: _540  and  _542
REMARK  221  A    between atoms: _542  and  _543
REMARK  222  A    between atoms: _542  and  _545
REMARK  223  A    between atoms: _545  and  _546
REMARK  224  A    between atoms: _549  and  _551
REMARK  225  A    between atoms: _551  and  _552
REMARK  226  A    between atoms: _551  and  _554
REMARK  227  A    between atoms: _554  and  _555
REMARK  228  A    between atoms: _558  and  _560
REMARK  229  A    between atoms: _560  and  _561
REMARK  230  A    between atoms: _563  and  _565
REMARK  231  A    between atoms: _565  and  _566
REMARK  232  A    between atoms: _565  and  _568
REMARK  233  A    between atoms: _568  and  _569
REMARK  234  A    between atoms: _569  and  _570
REMARK  235  A    between atoms: _570  and  _571
REMARK  236  A    between atoms: _580  and  _582
REMARK  237  A    between atoms: _582  and  _583
REMARK  238  A    between atoms: _582  and  _585
REMARK  239  A    between atoms: _585  and  _586
REMARK                            x       y       z     vdW  Elec       q    Type
REMARK                         _______ _______ _______ _____ _____    ______ ____
ROOT
ATOM      1  O   HOH     1       8.806  21.531  14.053  0.00  0.00    +0.000 OA
ENDROOT
TORSDOF 0
REMARK  Name = ../refined-set-2016/2aod/2aod_pocket.pdb
REMARK  239 active torsions:
REMARK  status: ('A' for Active; 'I' for Inactive)
REMARK    1  A    between atoms: _1  and  _3
REMARK    2  A    between atoms: _3  and  _4
REMARK    3  A    between atoms: _3  and  _6
REMARK    4  A    between atoms: _6  and  _7
REMARK    5  A    between atoms: _7  and  _8
REMARK    6  A    between atoms: _8  and  _9
REMARK    7  A    between atoms: _18  and  _20
REMARK    8  A    between atoms: _20  and  _21
REMARK    9  A    between atoms: _20  and  _23
REMARK   10  A    between atoms: _23  and  _24
REMARK   11  A    between atoms: _27  and  _29
REMARK   12  A    between atoms: _29  and  _30
REMARK   13  A    between atoms: _29  and  _32
REMARK   14  A    between atoms: _32  and  _33
REMARK   15  A    between atoms: _33  and  _34
REMARK   16  A    between atoms: _37  and  _39
REMARK   17  A    between atoms: _39  and  _40
REMARK   18  A    between atoms: _39  and  _42
REMARK   19  A    between atoms: _42  and  _43
REMARK   20  A    between atoms: _46  and  _48
REMARK   21  A    between atoms: _48  and  _49
REMARK   22  A    between atoms: _48  and  _51
REMARK   23  A    between atoms: _51  and  _52
REMARK   24  A    between atoms: _55  and  _57
REMARK   25  A    between atoms: _57  and  _58
REMARK   26  A    between atoms: _57  and  _60
REMARK   27  A    between atoms: _60  and  _61
REMARK   28  A    between atoms: _64  and  _66
REMARK   29  A    between atoms: _66  and  _67
REMARK   30  A    between atoms: _69  and  _71
REMARK   31  A    between atoms: _71  and  _72
REMARK   32  A    between atoms: _75  and  _77
REMARK   33  A    between atoms: _77  and  _78
REMARK   34  A    between atoms: _77  and  _80
REMARK   35  A    between atoms: _80  and  _81
REMARK   36  A    between atoms: _84  and  _86
REMARK   37  A    between atoms: _86  and  _87
REMARK   38  A    between atoms: _86  and  _89
REMARK   39  A    between atoms: _89  and  _90
REMARK   40  A    between atoms: _93  and  _95
REMARK   41  A    between atoms: _95  and  _96
REMARK   42  A    between atoms: _95  and  _98
REMARK   43  A    between atoms: _98  and  _99
REMARK   44  A    between atoms: _102  and  _104
REMARK   45  A    between atoms: _104  and  _105
REMARK   46  A    between atoms: _104  and  _107
REMARK   47  A    between atoms: _110  and  _112
REMARK   48  A    between atoms: _112  and  _113
REMARK   49  A    between atoms: _112  and  _115
REMARK   50  A    between atoms: _115  and  _116
REMARK   51  A    between atoms: _116  and  _117
REMARK   52  A    between atoms: _117  and  _118
REMARK   53  A    between atoms: _118  and  _119
REMARK   54  A    between atoms: _123  and  _125
REMARK   55  A    between atoms: _125  and  _126
REMARK   56  A    between atoms: _125  and  _128
REMARK   57  A    between atoms: _128  and  _129
REMARK   58  A    between atoms: _129  and  _130
REMARK   59  A    between atoms: _132  and  _134
REMARK   60  A    between atoms: _134  and  _135
REMARK   61  A    between atoms: _134  and  _137
REMARK   62  A    between atoms: _137  and  _138
REMARK   63  A    between atoms: _141  and  _143
REMARK   64  A    between atoms: _143  and  _144
REMARK   65  A    between atoms: _146  and  _148
REMARK   66  A    between atoms: _148  and  _149
REMARK   67  A    between atoms: _151  and  _153
REMARK   68  A    between atoms: _153  and  _154
REMARK   69  A    between atoms: _153  and  _156
REMARK   70  A    between atoms: _156  and  _157
REMARK   71  A    between atoms: _160  and  _162
REMARK   72  A    between atoms: _162  and  _163
REMARK   73  A    between atoms: _165  and  _167
REMARK   74  A    between atoms: _167  and  _168
REMARK   75  A    between atoms: _170  and  _172
REMARK   76  A    between atoms: _172  and  _173
REMARK   77  A    between atoms: _172  and  _175
REMARK   78  A    between atoms: _175  and  _176
REMARK   79  A    between atoms: _182  and  _184
REMARK   80  A    between atoms: _184  and  _185
REMARK   81  A    between atoms: _184  and  _187
REMARK   82  A    between atoms: _187  and  _188
REMARK   83  A    between atoms: _191  and  _193
REMARK   84  A    between atoms: _193  and  _194
REMARK   85  A    between atoms: _193  and  _196
REMARK   86  A    between atoms: _199  and  _201
REMARK   87  A    between atoms: _201  and  _202
REMARK   88  A    between atoms: _201  and  _204
REMARK   89  A    between atoms: _204  and  _205
REMARK   90  A    between atoms: _209  and  _210
REMARK   91  A    between atoms: _215  and  _217
REMARK   92  A    between atoms: _217  and  _218
REMARK   93  A    between atoms: _217  and  _220
REMARK   94  A    between atoms: _220  and  _221
REMARK   95  A    between atoms: _225  and  _226
REMARK   96  A    between atoms: _231  and  _233
REMARK   97  A    between atoms: _233  and  _234
REMARK   98  A    between atoms: _233  and  _236
REMARK   99  A    between atoms: _239  and  _241
REMARK  100  A    between atoms: _241  and  _242
REMARK  101  A    between atoms: _241  and  _244
REMARK  102  A    between atoms: _244  and  _245
REMARK  103  A    between atoms: _250  and  _252
REMARK  104  A    between atoms: _252  and  _253
REMARK  105  A    between atoms: _252  and  _255
REMARK  106  A    between atoms: _255  and  _256
REMARK  107  A    between atoms: _259  and  _261
REMARK  108  A    between atoms: _261  and  _262
REMARK  109  A    between atoms: _261  and  _264
REMARK  110  A    between atoms: _264  and  _265
REMARK  111  A    between atoms: _268  and  _270
REMARK  112  A    between atoms: _270  and  _271
REMARK  113  A    between atoms: _273  and  _275
REMARK  114  A    between atoms: _275  and  _276
REMARK  115  A    between atoms: _275  and  _278
REMARK  116  A    between atoms: _278  and  _279
REMARK  117  A    between atoms: _279  and  _280
REMARK  118  A    between atoms: _280  and  _281
REMARK  119  A    between atoms: _290  and  _292
REMARK  120  A    between atoms: _292  and  _293
REMARK  121  A    between atoms: _292  and  _295
REMARK  122  A    between atoms: _295  and  _296
REMARK  123  A    between atoms: _301  and  _303
REMARK  124  A    between atoms: _303  and  _304
REMARK  125  A    between atoms: _303  and  _306
REMARK  126  A    between atoms: _306  and  _307
REMARK  127  A    between atoms: _307  and  _308
REMARK  128  A    between atoms: _308  and  _309
REMARK  129  A    between atoms: _318  and  _320
REMARK  130  A    between atoms: _320  and  _321
REMARK  131  A    between atoms: _320  and  _323
REMARK  132  A    between atoms: _323  and  _324
REMARK  133  A    between atoms: _327  and  _329
REMARK  134  A    between atoms: _329  and  _330
REMARK  135  A    between atoms: _329  and  _332
REMARK  136  A    between atoms: _332  and  _333
REMARK  137  A    between atoms: _336  and  _338
REMARK  138  A    between atoms: _338  and  _339
REMARK  139  A    between atoms: _338  and  _341
REMARK  140  A    between atoms: _341  and  _342
REMARK  141  A    between atoms: _345  and  _347
REMARK  142  A    between atoms: _347  and  _348
REMARK  143  A    between atoms: _347  and  _350
REMARK  144  A    between atoms: _350  and  _351
REMARK  145  A    between atoms: _354  and  _356
REMARK  146  A    between atoms: _356  and  _357
REMARK  147  A    between atoms: _359  and  _361
REMARK  148  A    between atoms: _361  and  _362
REMARK  149  A    between atoms: _365  and  _367
REMARK  150  A    between atoms: _367  and  _368
REMARK  151  A    between atoms: _367  and  _370
REMARK  152  A    between atoms: _370  and  _371
REMARK  153  A    between atoms: _374  and  _376
REMARK  154  A    between atoms: _376  and  _377
REMARK  155  A    between atoms: _376  and  _379
REMARK  156  A    between atoms: _379  and  _380
REMARK  157  A    between atoms: _383  and  _385
REMARK  158  A    between atoms: _385  and  _386
REMARK  159  A    between atoms: _385  and  _388
REMARK  160  A    between atoms: _388  and  _389
REMARK  161  A    between atoms: _392  and  _394
REMARK  162  A    between atoms: _394  and  _395
REMARK  163  A    between atoms: _394  and  _397
REMARK  164  A    between atoms: _400  and  _402
REMARK  165  A    between atoms: _402  and  _403
REMARK  166  A    between atoms: _402  and  _405
REMARK  167  A    between atoms: _405  and  _406
REMARK  168  A    between atoms: _406  and  _407
REMARK  169  A    between atoms: _407  and  _408
REMARK  170  A    between atoms: _408  and  _409
REMARK  171  A    between atoms: _413  and  _415
REMARK  172  A    between atoms: _415  and  _416
REMARK  173  A    between atoms: _415  and  _418
REMARK  174  A    between atoms: _418  and  _419
REMARK  175  A    between atoms: _419  and  _420
REMARK  176  A    between atoms: _422  and  _424
REMARK  177  A    between atoms: _424  and  _425
REMARK  178  A    between atoms: _424  and  _427
REMARK  179  A    between atoms: _427  and  _428
REMARK  180  A    between atoms: _431  and  _433
REMARK  181  A    between atoms: _433  and  _434
REMARK  182  A    between atoms: _436  and  _438
REMARK  183  A    between atoms: _438  and  _439
REMARK  184  A    between atoms: _441  and  _443
REMARK  185  A    between atoms: _443  and  _444
REMARK  186  A    between atoms: _443  and  _446
REMARK  187  A    between atoms: _446  and  _447
REMARK  188  A    between atoms: _450  and  _452
REMARK  189  A    between atoms: _452  and  _453
REMARK  190  A    between atoms: _455  and  _457
REMARK  191  A    between atoms: _457  and  _458
REMARK  192  A    between atoms: _460  and  _462
REMARK  193  A    between atoms: _462  and  _463
REMARK  194  A    between atoms: _462  and  _465
REMARK  195  A    between atoms: _465  and  _466
REMARK  196  A    between atoms: _472  and  _474
REMARK  197  A    between atoms: _474  and  _475
REMARK  198  A    between atoms: _474  and  _477
REMARK  199  A    between atoms: _477  and  _478
REMARK  200  A    between atoms: _481  and  _483
REMARK  201  A    between atoms: _483  and  _484
REMARK  202  A    between atoms: _483  and  _486
REMARK  203  A    between atoms: _489  and  _491
REMARK  204  A    between atoms: _491  and  _492
REMARK  205  A    between atoms: _491  and  _494
REMARK  206  A    between atoms: _494  and  _495
REMARK  207  A    between atoms: _499  and  _500
REMARK  208  A    between atoms: _505  and  _507
REMARK  209  A    between atoms: _507  and  _508
REMARK  210  A    between atoms: _507  and  _510
REMARK  211  A    between atoms: _510  and  _511
REMARK  212  A    between atoms: _515  and  _516
REMARK  213  A    between atoms: _521  and  _523
REMARK  214  A    between atoms: _523  and  _524
REMARK  215  A    between atoms: _523  and  _526
REMARK  216  A    between atoms: _529  and  _531
REMARK  217  A    between atoms: _531  and  _532
REMARK  218  A    between atoms: _531  and  _534
REMARK  219  A    between atoms: _534  and  _535
REMARK  220  A    between atoms: _540  and  _542
REMARK  221  A    between atoms: _542  and  _543
REMARK  222  A    between atoms: _542  and  _545
REMARK  223  A    between atoms: _545  and  _546
REMARK  224  A    between atoms: _549  and  _551
REMARK  225  A    between atoms: _551  and  _552
REMARK  226  A    between atoms: _551  and  _554
REMARK  227  A    between atoms: _554  and  _555
REMARK  228  A    between atoms: _558  and  _560
REMARK  229  A    between atoms: _560  and  _561
REMARK  230  A    between atoms: _563  and  _565
REMARK  231  A    between atoms: _565  and  _566
REMARK  232  A    between atoms: _565  and  _568
REMARK  233  A    between atoms: _568  and  _569
REMARK  234  A    between atoms: _569  and  _570
REMARK  235  A    between atoms: _570  and  _571
REMARK  236  A    between atoms: _580  and  _582
REMARK  237  A    between atoms: _582  and  _583
REMARK  238  A    between atoms: _582  and  _585
REMARK  239  A    between atoms: _585  and  _586
REMARK                            x       y       z     vdW  Elec       q    Type
REMARK                         _______ _______ _______ _____ _____    ______ ____
ROOT
ATOM      1  O   HOH     1      15.198  15.792  12.167  0.00  0.00    +0.000 OA
ENDROOT
TORSDOF 0
REMARK  Name = ../refined-set-2016/2aod/2aod_pocket.pdb
REMARK  239 active torsions:
REMARK  status: ('A' for Active; 'I' for Inactive)
REMARK    1  A    between atoms: _1  and  _3
REMARK    2  A    between atoms: _3  and  _4
REMARK    3  A    between atoms: _3  and  _6
REMARK    4  A    between atoms: _6  and  _7
REMARK    5  A    between atoms: _7  and  _8
REMARK    6  A    between atoms: _8  and  _9
REMARK    7  A    between atoms: _18  and  _20
REMARK    8  A    between atoms: _20  and  _21
REMARK    9  A    between atoms: _20  and  _23
REMARK   10  A    between atoms: _23  and  _24
REMARK   11  A    between atoms: _27  and  _29
REMARK   12  A    between atoms: _29  and  _30
REMARK   13  A    between atoms: _29  and  _32
REMARK   14  A    between atoms: _32  and  _33
REMARK   15  A    between atoms: _33  and  _34
REMARK   16  A    between atoms: _37  and  _39
REMARK   17  A    between atoms: _39  and  _40
REMARK   18  A    between atoms: _39  and  _42
REMARK   19  A    between atoms: _42  and  _43
REMARK   20  A    between atoms: _46  and  _48
REMARK   21  A    between atoms: _48  and  _49
REMARK   22  A    between atoms: _48  and  _51
REMARK   23  A    between atoms: _51  and  _52
REMARK   24  A    between atoms: _55  and  _57
REMARK   25  A    between atoms: _57  and  _58
REMARK   26  A    between atoms: _57  and  _60
REMARK   27  A    between atoms: _60  and  _61
REMARK   28  A    between atoms: _64  and  _66
REMARK   29  A    between atoms: _66  and  _67
REMARK   30  A    between atoms: _69  and  _71
REMARK   31  A    between atoms: _71  and  _72
REMARK   32  A    between atoms: _75  and  _77
REMARK   33  A    between atoms: _77  and  _78
REMARK   34  A    between atoms: _77  and  _80
REMARK   35  A    between atoms: _80  and  _81
REMARK   36  A    between atoms: _84  and  _86
REMARK   37  A    between atoms: _86  and  _87
REMARK   38  A    between atoms: _86  and  _89
REMARK   39  A    between atoms: _89  and  _90
REMARK   40  A    between atoms: _93  and  _95
REMARK   41  A    between atoms: _95  and  _96
REMARK   42  A    between atoms: _95  and  _98
REMARK   43  A    between atoms: _98  and  _99
REMARK   44  A    between atoms: _102  and  _104
REMARK   45  A    between atoms: _104  and  _105
REMARK   46  A    between atoms: _104  and  _107
REMARK   47  A    between atoms: _110  and  _112
REMARK   48  A    between atoms: _112  and  _113
REMARK   49  A    between atoms: _112  and  _115
REMARK   50  A    between atoms: _115  and  _116
REMARK   51  A    between atoms: _116  and  _117
REMARK   52  A    between atoms: _117  and  _118
REMARK   53  A    between atoms: _118  and  _119
REMARK   54  A    between atoms: _123  and  _125
REMARK   55  A    between atoms: _125  and  _126
REMARK   56  A    between atoms: _125  and  _128
REMARK   57  A    between atoms: _128  and  _129
REMARK   58  A    between atoms: _129  and  _130
REMARK   59  A    between atoms: _132  and  _134
REMARK   60  A    between atoms: _134  and  _135
REMARK   61  A    between atoms: _134  and  _137
REMARK   62  A    between atoms: _137  and  _138
REMARK   63  A    between atoms: _141  and  _143
REMARK   64  A    between atoms: _143  and  _144
REMARK   65  A    between atoms: _146  and  _148
REMARK   66  A    between atoms: _148  and  _149
REMARK   67  A    between atoms: _151  and  _153
REMARK   68  A    between atoms: _153  and  _154
REMARK   69  A    between atoms: _153  and  _156
REMARK   70  A    between atoms: _156  and  _157
REMARK   71  A    between atoms: _160  and  _162
REMARK   72  A    between atoms: _162  and  _163
REMARK   73  A    between atoms: _165  and  _167
REMARK   74  A    between atoms: _167  and  _168
REMARK   75  A    between atoms: _170  and  _172
REMARK   76  A    between atoms: _172  and  _173
REMARK   77  A    between atoms: _172  and  _175
REMARK   78  A    between atoms: _175  and  _176
REMARK   79  A    between atoms: _182  and  _184
REMARK   80  A    between atoms: _184  and  _185
REMARK   81  A    between atoms: _184  and  _187
REMARK   82  A    between atoms: _187  and  _188
REMARK   83  A    between atoms: _191  and  _193
REMARK   84  A    between atoms: _193  and  _194
REMARK   85  A    between atoms: _193  and  _196
REMARK   86  A    between atoms: _199  and  _201
REMARK   87  A    between atoms: _201  and  _202
REMARK   88  A    between atoms: _201  and  _204
REMARK   89  A    between atoms: _204  and  _205
REMARK   90  A    between atoms: _209  and  _210
REMARK   91  A    between atoms: _215  and  _217
REMARK   92  A    between atoms: _217  and  _218
REMARK   93  A    between atoms: _217  and  _220
REMARK   94  A    between atoms: _220  and  _221
REMARK   95  A    between atoms: _225  and  _226
REMARK   96  A    between atoms: _231  and  _233
REMARK   97  A    between atoms: _233  and  _234
REMARK   98  A    between atoms: _233  and  _236
REMARK   99  A    between atoms: _239  and  _241
REMARK  100  A    between atoms: _241  and  _242
REMARK  101  A    between atoms: _241  and  _244
REMARK  102  A    between atoms: _244  and  _245
REMARK  103  A    between atoms: _250  and  _252
REMARK  104  A    between atoms: _252  and  _253
REMARK  105  A    between atoms: _252  and  _255
REMARK  106  A    between atoms: _255  and  _256
REMARK  107  A    between atoms: _259  and  _261
REMARK  108  A    between atoms: _261  and  _262
REMARK  109  A    between atoms: _261  and  _264
REMARK  110  A    between atoms: _264  and  _265
REMARK  111  A    between atoms: _268  and  _270
REMARK  112  A    between atoms: _270  and  _271
REMARK  113  A    between atoms: _273  and  _275
REMARK  114  A    between atoms: _275  and  _276
REMARK  115  A    between atoms: _275  and  _278
REMARK  116  A    between atoms: _278  and  _279
REMARK  117  A    between atoms: _279  and  _280
REMARK  118  A    between atoms: _280  and  _281
REMARK  119  A    between atoms: _290  and  _292
REMARK  120  A    between atoms: _292  and  _293
REMARK  121  A    between atoms: _292  and  _295
REMARK  122  A    between atoms: _295  and  _296
REMARK  123  A    between atoms: _301  and  _303
REMARK  124  A    between atoms: _303  and  _304
REMARK  125  A    between atoms: _303  and  _306
REMARK  126  A    between atoms: _306  and  _307
REMARK  127  A    between atoms: _307  and  _308
REMARK  128  A    between atoms: _308  and  _309
REMARK  129  A    between atoms: _318  and  _320
REMARK  130  A    between atoms: _320  and  _321
REMARK  131  A    between atoms: _320  and  _323
REMARK  132  A    between atoms: _323  and  _324
REMARK  133  A    between atoms: _327  and  _329
REMARK  134  A    between atoms: _329  and  _330
REMARK  135  A    between atoms: _329  and  _332
REMARK  136  A    between atoms: _332  and  _333
REMARK  137  A    between atoms: _336  and  _338
REMARK  138  A    between atoms: _338  and  _339
REMARK  139  A    between atoms: _338  and  _341
REMARK  140  A    between atoms: _341  and  _342
REMARK  141  A    between atoms: _345  and  _347
REMARK  142  A    between atoms: _347  and  _348
REMARK  143  A    between atoms: _347  and  _350
REMARK  144  A    between atoms: _350  and  _351
REMARK  145  A    between atoms: _354  and  _356
REMARK  146  A    between atoms: _356  and  _357
REMARK  147  A    between atoms: _359  and  _361
REMARK  148  A    between atoms: _361  and  _362
REMARK  149  A    between atoms: _365  and  _367
REMARK  150  A    between atoms: _367  and  _368
REMARK  151  A    between atoms: _367  and  _370
REMARK  152  A    between atoms: _370  and  _371
REMARK  153  A    between atoms: _374  and  _376
REMARK  154  A    between atoms: _376  and  _377
REMARK  155  A    between atoms: _376  and  _379
REMARK  156  A    between atoms: _379  and  _380
REMARK  157  A    between atoms: _383  and  _385
REMARK  158  A    between atoms: _385  and  _386
REMARK  159  A    between atoms: _385  and  _388
REMARK  160  A    between atoms: _388  and  _389
REMARK  161  A    between atoms: _392  and  _394
REMARK  162  A    between atoms: _394  and  _395
REMARK  163  A    between atoms: _394  and  _397
REMARK  164  A    between atoms: _400  and  _402
REMARK  165  A    between atoms: _402  and  _403
REMARK  166  A    between atoms: _402  and  _405
REMARK  167  A    between atoms: _405  and  _406
REMARK  168  A    between atoms: _406  and  _407
REMARK  169  A    between atoms: _407  and  _408
REMARK  170  A    between atoms: _408  and  _409
REMARK  171  A    between atoms: _413  and  _415
REMARK  172  A    between atoms: _415  and  _416
REMARK  173  A    between atoms: _415  and  _418
REMARK  174  A    between atoms: _418  and  _419
REMARK  175  A    between atoms: _419  and  _420
REMARK  176  A    between atoms: _422  and  _424
REMARK  177  A    between atoms: _424  and  _425
REMARK  178  A    between atoms: _424  and  _427
REMARK  179  A    between atoms: _427  and  _428
REMARK  180  A    between atoms: _431  and  _433
REMARK  181  A    between atoms: _433  and  _434
REMARK  182  A    between atoms: _436  and  _438
REMARK  183  A    between atoms: _438  and  _439
REMARK  184  A    between atoms: _441  and  _443
REMARK  185  A    between atoms: _443  and  _444
REMARK  186  A    between atoms: _443  and  _446
REMARK  187  A    between atoms: _446  and  _447
REMARK  188  A    between atoms: _450  and  _452
REMARK  189  A    between atoms: _452  and  _453
REMARK  190  A    between atoms: _455  and  _457
REMARK  191  A    between atoms: _457  and  _458
REMARK  192  A    between atoms: _460  and  _462
REMARK  193  A    between atoms: _462  and  _463
REMARK  194  A    between atoms: _462  and  _465
REMARK  195  A    between atoms: _465  and  _466
REMARK  196  A    between atoms: _472  and  _474
REMARK  197  A    between atoms: _474  and  _475
REMARK  198  A    between atoms: _474  and  _477
REMARK  199  A    between atoms: _477  and  _478
REMARK  200  A    between atoms: _481  and  _483
REMARK  201  A    between atoms: _483  and  _484
REMARK  202  A    between atoms: _483  and  _486
REMARK  203  A    between atoms: _489  and  _491
REMARK  204  A    between atoms: _491  and  _492
REMARK  205  A    between atoms: _491  and  _494
REMARK  206  A    between atoms: _494  and  _495
REMARK  207  A    between atoms: _499  and  _500
REMARK  208  A    between atoms: _505  and  _507
REMARK  209  A    between atoms: _507  and  _508
REMARK  210  A    between atoms: _507  and  _510
REMARK  211  A    between atoms: _510  and  _511
REMARK  212  A    between atoms: _515  and  _516
REMARK  213  A    between atoms: _521  and  _523
REMARK  214  A    between atoms: _523  and  _524
REMARK  215  A    between atoms: _523  and  _526
REMARK  216  A    between atoms: _529  and  _531
REMARK  217  A    between atoms: _531  and  _532
REMARK  218  A    between atoms: _531  and  _534
REMARK  219  A    between atoms: _534  and  _535
REMARK  220  A    between atoms: _540  and  _542
REMARK  221  A    between atoms: _542  and  _543
REMARK  222  A    between atoms: _542  and  _545
REMARK  223  A    between atoms: _545  and  _546
REMARK  224  A    between atoms: _549  and  _551
REMARK  225  A    between atoms: _551  and  _552
REMARK  226  A    between atoms: _551  and  _554
REMARK  227  A    between atoms: _554  and  _555
REMARK  228  A    between atoms: _558  and  _560
REMARK  229  A    between atoms: _560  and  _561
REMARK  230  A    between atoms: _563  and  _565
REMARK  231  A    between atoms: _565  and  _566
REMARK  232  A    between atoms: _565  and  _568
REMARK  233  A    between atoms: _568  and  _569
REMARK  234  A    between atoms: _569  and  _570
REMARK  235  A    between atoms: _570  and  _571
REMARK  236  A    between atoms: _580  and  _582
REMARK  237  A    between atoms: _582  and  _583
REMARK  238  A    between atoms: _582  and  _585
REMARK  239  A    between atoms: _585  and  _586
REMARK                            x       y       z     vdW  Elec       q    Type
REMARK                         _______ _______ _______ _____ _____    ______ ____
ROOT
ATOM      1  O   HOH     1      22.181  15.340  19.644  0.00  0.00    +0.000 OA
ENDROOT
TORSDOF 0
REMARK  Name = ../refined-set-2016/2aod/2aod_pocket.pdb
REMARK  239 active torsions:
REMARK  status: ('A' for Active; 'I' for Inactive)
REMARK    1  A    between atoms: _1  and  _3
REMARK    2  A    between atoms: _3  and  _4
REMARK    3  A    between atoms: _3  and  _6
REMARK    4  A    between atoms: _6  and  _7
REMARK    5  A    between atoms: _7  and  _8
REMARK    6  A    between atoms: _8  and  _9
REMARK    7  A    between atoms: _18  and  _20
REMARK    8  A    between atoms: _20  and  _21
REMARK    9  A    between atoms: _20  and  _23
REMARK   10  A    between atoms: _23  and  _24
REMARK   11  A    between atoms: _27  and  _29
REMARK   12  A    between atoms: _29  and  _30
REMARK   13  A    between atoms: _29  and  _32
REMARK   14  A    between atoms: _32  and  _33
REMARK   15  A    between atoms: _33  and  _34
REMARK   16  A    between atoms: _37  and  _39
REMARK   17  A    between atoms: _39  and  _40
REMARK   18  A    between atoms: _39  and  _42
REMARK   19  A    between atoms: _42  and  _43
REMARK   20  A    between atoms: _46  and  _48
REMARK   21  A    between atoms: _48  and  _49
REMARK   22  A    between atoms: _48  and  _51
REMARK   23  A    between atoms: _51  and  _52
REMARK   24  A    between atoms: _55  and  _57
REMARK   25  A    between atoms: _57  and  _58
REMARK   26  A    between atoms: _57  and  _60
REMARK   27  A    between atoms: _60  and  _61
REMARK   28  A    between atoms: _64  and  _66
REMARK   29  A    between atoms: _66  and  _67
REMARK   30  A    between atoms: _69  and  _71
REMARK   31  A    between atoms: _71  and  _72
REMARK   32  A    between atoms: _75  and  _77
REMARK   33  A    between atoms: _77  and  _78
REMARK   34  A    between atoms: _77  and  _80
REMARK   35  A    between atoms: _80  and  _81
REMARK   36  A    between atoms: _84  and  _86
REMARK   37  A    between atoms: _86  and  _87
REMARK   38  A    between atoms: _86  and  _89
REMARK   39  A    between atoms: _89  and  _90
REMARK   40  A    between atoms: _93  and  _95
REMARK   41  A    between atoms: _95  and  _96
REMARK   42  A    between atoms: _95  and  _98
REMARK   43  A    between atoms: _98  and  _99
REMARK   44  A    between atoms: _102  and  _104
REMARK   45  A    between atoms: _104  and  _105
REMARK   46  A    between atoms: _104  and  _107
REMARK   47  A    between atoms: _110  and  _112
REMARK   48  A    between atoms: _112  and  _113
REMARK   49  A    between atoms: _112  and  _115
REMARK   50  A    between atoms: _115  and  _116
REMARK   51  A    between atoms: _116  and  _117
REMARK   52  A    between atoms: _117  and  _118
REMARK   53  A    between atoms: _118  and  _119
REMARK   54  A    between atoms: _123  and  _125
REMARK   55  A    between atoms: _125  and  _126
REMARK   56  A    between atoms: _125  and  _128
REMARK   57  A    between atoms: _128  and  _129
REMARK   58  A    between atoms: _129  and  _130
REMARK   59  A    between atoms: _132  and  _134
REMARK   60  A    between atoms: _134  and  _135
REMARK   61  A    between atoms: _134  and  _137
REMARK   62  A    between atoms: _137  and  _138
REMARK   63  A    between atoms: _141  and  _143
REMARK   64  A    between atoms: _143  and  _144
REMARK   65  A    between atoms: _146  and  _148
REMARK   66  A    between atoms: _148  and  _149
REMARK   67  A    between atoms: _151  and  _153
REMARK   68  A    between atoms: _153  and  _154
REMARK   69  A    between atoms: _153  and  _156
REMARK   70  A    between atoms: _156  and  _157
REMARK   71  A    between atoms: _160  and  _162
REMARK   72  A    between atoms: _162  and  _163
REMARK   73  A    between atoms: _165  and  _167
REMARK   74  A    between atoms: _167  and  _168
REMARK   75  A    between atoms: _170  and  _172
REMARK   76  A    between atoms: _172  and  _173
REMARK   77  A    between atoms: _172  and  _175
REMARK   78  A    between atoms: _175  and  _176
REMARK   79  A    between atoms: _182  and  _184
REMARK   80  A    between atoms: _184  and  _185
REMARK   81  A    between atoms: _184  and  _187
REMARK   82  A    between atoms: _187  and  _188
REMARK   83  A    between atoms: _191  and  _193
REMARK   84  A    between atoms: _193  and  _194
REMARK   85  A    between atoms: _193  and  _196
REMARK   86  A    between atoms: _199  and  _201
REMARK   87  A    between atoms: _201  and  _202
REMARK   88  A    between atoms: _201  and  _204
REMARK   89  A    between atoms: _204  and  _205
REMARK   90  A    between atoms: _209  and  _210
REMARK   91  A    between atoms: _215  and  _217
REMARK   92  A    between atoms: _217  and  _218
REMARK   93  A    between atoms: _217  and  _220
REMARK   94  A    between atoms: _220  and  _221
REMARK   95  A    between atoms: _225  and  _226
REMARK   96  A    between atoms: _231  and  _233
REMARK   97  A    between atoms: _233  and  _234
REMARK   98  A    between atoms: _233  and  _236
REMARK   99  A    between atoms: _239  and  _241
REMARK  100  A    between atoms: _241  and  _242
REMARK  101  A    between atoms: _241  and  _244
REMARK  102  A    between atoms: _244  and  _245
REMARK  103  A    between atoms: _250  and  _252
REMARK  104  A    between atoms: _252  and  _253
REMARK  105  A    between atoms: _252  and  _255
REMARK  106  A    between atoms: _255  and  _256
REMARK  107  A    between atoms: _259  and  _261
REMARK  108  A    between atoms: _261  and  _262
REMARK  109  A    between atoms: _261  and  _264
REMARK  110  A    between atoms: _264  and  _265
REMARK  111  A    between atoms: _268  and  _270
REMARK  112  A    between atoms: _270  and  _271
REMARK  113  A    between atoms: _273  and  _275
REMARK  114  A    between atoms: _275  and  _276
REMARK  115  A    between atoms: _275  and  _278
REMARK  116  A    between atoms: _278  and  _279
REMARK  117  A    between atoms: _279  and  _280
REMARK  118  A    between atoms: _280  and  _281
REMARK  119  A    between atoms: _290  and  _292
REMARK  120  A    between atoms: _292  and  _293
REMARK  121  A    between atoms: _292  and  _295
REMARK  122  A    between atoms: _295  and  _296
REMARK  123  A    between atoms: _301  and  _303
REMARK  124  A    between atoms: _303  and  _304
REMARK  125  A    between atoms: _303  and  _306
REMARK  126  A    between atoms: _306  and  _307
REMARK  127  A    between atoms: _307  and  _308
REMARK  128  A    between atoms: _308  and  _309
REMARK  129  A    between atoms: _318  and  _320
REMARK  130  A    between atoms: _320  and  _321
REMARK  131  A    between atoms: _320  and  _323
REMARK  132  A    between atoms: _323  and  _324
REMARK  133  A    between atoms: _327  and  _329
REMARK  134  A    between atoms: _329  and  _330
REMARK  135  A    between atoms: _329  and  _332
REMARK  136  A    between atoms: _332  and  _333
REMARK  137  A    between atoms: _336  and  _338
REMARK  138  A    between atoms: _338  and  _339
REMARK  139  A    between atoms: _338  and  _341
REMARK  140  A    between atoms: _341  and  _342
REMARK  141  A    between atoms: _345  and  _347
REMARK  142  A    between atoms: _347  and  _348
REMARK  143  A    between atoms: _347  and  _350
REMARK  144  A    between atoms: _350  and  _351
REMARK  145  A    between atoms: _354  and  _356
REMARK  146  A    between atoms: _356  and  _357
REMARK  147  A    between atoms: _359  and  _361
REMARK  148  A    between atoms: _361  and  _362
REMARK  149  A    between atoms: _365  and  _367
REMARK  150  A    between atoms: _367  and  _368
REMARK  151  A    between atoms: _367  and  _370
REMARK  152  A    between atoms: _370  and  _371
REMARK  153  A    between atoms: _374  and  _376
REMARK  154  A    between atoms: _376  and  _377
REMARK  155  A    between atoms: _376  and  _379
REMARK  156  A    between atoms: _379  and  _380
REMARK  157  A    between atoms: _383  and  _385
REMARK  158  A    between atoms: _385  and  _386
REMARK  159  A    between atoms: _385  and  _388
REMARK  160  A    between atoms: _388  and  _389
REMARK  161  A    between atoms: _392  and  _394
REMARK  162  A    between atoms: _394  and  _395
REMARK  163  A    between atoms: _394  and  _397
REMARK  164  A    between atoms: _400  and  _402
REMARK  165  A    between atoms: _402  and  _403
REMARK  166  A    between atoms: _402  and  _405
REMARK  167  A    between atoms: _405  and  _406
REMARK  168  A    between atoms: _406  and  _407
REMARK  169  A    between atoms: _407  and  _408
REMARK  170  A    between atoms: _408  and  _409
REMARK  171  A    between atoms: _413  and  _415
REMARK  172  A    between atoms: _415  and  _416
REMARK  173  A    between atoms: _415  and  _418
REMARK  174  A    between atoms: _418  and  _419
REMARK  175  A    between atoms: _419  and  _420
REMARK  176  A    between atoms: _422  and  _424
REMARK  177  A    between atoms: _424  and  _425
REMARK  178  A    between atoms: _424  and  _427
REMARK  179  A    between atoms: _427  and  _428
REMARK  180  A    between atoms: _431  and  _433
REMARK  181  A    between atoms: _433  and  _434
REMARK  182  A    between atoms: _436  and  _438
REMARK  183  A    between atoms: _438  and  _439
REMARK  184  A    between atoms: _441  and  _443
REMARK  185  A    between atoms: _443  and  _444
REMARK  186  A    between atoms: _443  and  _446
REMARK  187  A    between atoms: _446  and  _447
REMARK  188  A    between atoms: _450  and  _452
REMARK  189  A    between atoms: _452  and  _453
REMARK  190  A    between atoms: _455  and  _457
REMARK  191  A    between atoms: _457  and  _458
REMARK  192  A    between atoms: _460  and  _462
REMARK  193  A    between atoms: _462  and  _463
REMARK  194  A    between atoms: _462  and  _465
REMARK  195  A    between atoms: _465  and  _466
REMARK  196  A    between atoms: _472  and  _474
REMARK  197  A    between atoms: _474  and  _475
REMARK  198  A    between atoms: _474  and  _477
REMARK  199  A    between atoms: _477  and  _478
REMARK  200  A    between atoms: _481  and  _483
REMARK  201  A    between atoms: _483  and  _484
REMARK  202  A    between atoms: _483  and  _486
REMARK  203  A    between atoms: _489  and  _491
REMARK  204  A    between atoms: _491  and  _492
REMARK  205  A    between atoms: _491  and  _494
REMARK  206  A    between atoms: _494  and  _495
REMARK  207  A    between atoms: _499  and  _500
REMARK  208  A    between atoms: _505  and  _507
REMARK  209  A    between atoms: _507  and  _508
REMARK  210  A    between atoms: _507  and  _510
REMARK  211  A    between atoms: _510  and  _511
REMARK  212  A    between atoms: _515  and  _516
REMARK  213  A    between atoms: _521  and  _523
REMARK  214  A    between atoms: _523  and  _524
REMARK  215  A    between atoms: _523  and  _526
REMARK  216  A    between atoms: _529  and  _531
REMARK  217  A    between atoms: _531  and  _532
REMARK  218  A    between atoms: _531  and  _534
REMARK  219  A    between atoms: _534  and  _535
REMARK  220  A    between atoms: _540  and  _542
REMARK  221  A    between atoms: _542  and  _543
REMARK  222  A    between atoms: _542  and  _545
REMARK  223  A    between atoms: _545  and  _546
REMARK  224  A    between atoms: _549  and  _551
REMARK  225  A    between atoms: _551  and  _552
REMARK  226  A    between atoms: _551  and  _554
REMARK  227  A    between atoms: _554  and  _555
REMARK  228  A    between atoms: _558  and  _560
REMARK  229  A    between atoms: _560  and  _561
REMARK  230  A    between atoms: _563  and  _565
REMARK  231  A    between atoms: _565  and  _566
REMARK  232  A    between atoms: _565  and  _568
REMARK  233  A    between atoms: _568  and  _569
REMARK  234  A    between atoms: _569  and  _570
REMARK  235  A    between atoms: _570  and  _571
REMARK  236  A    between atoms: _580  and  _582
REMARK  237  A    between atoms: _582  and  _583
REMARK  238  A    between atoms: _582  and  _585
REMARK  239  A    between atoms: _585  and  _586
REMARK                            x       y       z     vdW  Elec       q    Type
REMARK                         _______ _______ _______ _____ _____    ______ ____
ROOT
ATOM      1  O   HOH     1      24.863  28.899  15.185  0.00  0.00    +0.000 OA
ENDROOT
TORSDOF 0
REMARK  Name = ../refined-set-2016/2aod/2aod_pocket.pdb
REMARK  239 active torsions:
REMARK  status: ('A' for Active; 'I' for Inactive)
REMARK    1  A    between atoms: _1  and  _3
REMARK    2  A    between atoms: _3  and  _4
REMARK    3  A    between atoms: _3  and  _6
REMARK    4  A    between atoms: _6  and  _7
REMARK    5  A    between atoms: _7  and  _8
REMARK    6  A    between atoms: _8  and  _9
REMARK    7  A    between atoms: _18  and  _20
REMARK    8  A    between atoms: _20  and  _21
REMARK    9  A    between atoms: _20  and  _23
REMARK   10  A    between atoms: _23  and  _24
REMARK   11  A    between atoms: _27  and  _29
REMARK   12  A    between atoms: _29  and  _30
REMARK   13  A    between atoms: _29  and  _32
REMARK   14  A    between atoms: _32  and  _33
REMARK   15  A    between atoms: _33  and  _34
REMARK   16  A    between atoms: _37  and  _39
REMARK   17  A    between atoms: _39  and  _40
REMARK   18  A    between atoms: _39  and  _42
REMARK   19  A    between atoms: _42  and  _43
REMARK   20  A    between atoms: _46  and  _48
REMARK   21  A    between atoms: _48  and  _49
REMARK   22  A    between atoms: _48  and  _51
REMARK   23  A    between atoms: _51  and  _52
REMARK   24  A    between atoms: _55  and  _57
REMARK   25  A    between atoms: _57  and  _58
REMARK   26  A    between atoms: _57  and  _60
REMARK   27  A    between atoms: _60  and  _61
REMARK   28  A    between atoms: _64  and  _66
REMARK   29  A    between atoms: _66  and  _67
REMARK   30  A    between atoms: _69  and  _71
REMARK   31  A    between atoms: _71  and  _72
REMARK   32  A    between atoms: _75  and  _77
REMARK   33  A    between atoms: _77  and  _78
REMARK   34  A    between atoms: _77  and  _80
REMARK   35  A    between atoms: _80  and  _81
REMARK   36  A    between atoms: _84  and  _86
REMARK   37  A    between atoms: _86  and  _87
REMARK   38  A    between atoms: _86  and  _89
REMARK   39  A    between atoms: _89  and  _90
REMARK   40  A    between atoms: _93  and  _95
REMARK   41  A    between atoms: _95  and  _96
REMARK   42  A    between atoms: _95  and  _98
REMARK   43  A    between atoms: _98  and  _99
REMARK   44  A    between atoms: _102  and  _104
REMARK   45  A    between atoms: _104  and  _105
REMARK   46  A    between atoms: _104  and  _107
REMARK   47  A    between atoms: _110  and  _112
REMARK   48  A    between atoms: _112  and  _113
REMARK   49  A    between atoms: _112  and  _115
REMARK   50  A    between atoms: _115  and  _116
REMARK   51  A    between atoms: _116  and  _117
REMARK   52  A    between atoms: _117  and  _118
REMARK   53  A    between atoms: _118  and  _119
REMARK   54  A    between atoms: _123  and  _125
REMARK   55  A    between atoms: _125  and  _126
REMARK   56  A    between atoms: _125  and  _128
REMARK   57  A    between atoms: _128  and  _129
REMARK   58  A    between atoms: _129  and  _130
REMARK   59  A    between atoms: _132  and  _134
REMARK   60  A    between atoms: _134  and  _135
REMARK   61  A    between atoms: _134  and  _137
REMARK   62  A    between atoms: _137  and  _138
REMARK   63  A    between atoms: _141  and  _143
REMARK   64  A    between atoms: _143  and  _144
REMARK   65  A    between atoms: _146  and  _148
REMARK   66  A    between atoms: _148  and  _149
REMARK   67  A    between atoms: _151  and  _153
REMARK   68  A    between atoms: _153  and  _154
REMARK   69  A    between atoms: _153  and  _156
REMARK   70  A    between atoms: _156  and  _157
REMARK   71  A    between atoms: _160  and  _162
REMARK   72  A    between atoms: _162  and  _163
REMARK   73  A    between atoms: _165  and  _167
REMARK   74  A    between atoms: _167  and  _168
REMARK   75  A    between atoms: _170  and  _172
REMARK   76  A    between atoms: _172  and  _173
REMARK   77  A    between atoms: _172  and  _175
REMARK   78  A    between atoms: _175  and  _176
REMARK   79  A    between atoms: _182  and  _184
REMARK   80  A    between atoms: _184  and  _185
REMARK   81  A    between atoms: _184  and  _187
REMARK   82  A    between atoms: _187  and  _188
REMARK   83  A    between atoms: _191  and  _193
REMARK   84  A    between atoms: _193  and  _194
REMARK   85  A    between atoms: _193  and  _196
REMARK   86  A    between atoms: _199  and  _201
REMARK   87  A    between atoms: _201  and  _202
REMARK   88  A    between atoms: _201  and  _204
REMARK   89  A    between atoms: _204  and  _205
REMARK   90  A    between atoms: _209  and  _210
REMARK   91  A    between atoms: _215  and  _217
REMARK   92  A    between atoms: _217  and  _218
REMARK   93  A    between atoms: _217  and  _220
REMARK   94  A    between atoms: _220  and  _221
REMARK   95  A    between atoms: _225  and  _226
REMARK   96  A    between atoms: _231  and  _233
REMARK   97  A    between atoms: _233  and  _234
REMARK   98  A    between atoms: _233  and  _236
REMARK   99  A    between atoms: _239  and  _241
REMARK  100  A    between atoms: _241  and  _242
REMARK  101  A    between atoms: _241  and  _244
REMARK  102  A    between atoms: _244  and  _245
REMARK  103  A    between atoms: _250  and  _252
REMARK  104  A    between atoms: _252  and  _253
REMARK  105  A    between atoms: _252  and  _255
REMARK  106  A    between atoms: _255  and  _256
REMARK  107  A    between atoms: _259  and  _261
REMARK  108  A    between atoms: _261  and  _262
REMARK  109  A    between atoms: _261  and  _264
REMARK  110  A    between atoms: _264  and  _265
REMARK  111  A    between atoms: _268  and  _270
REMARK  112  A    between atoms: _270  and  _271
REMARK  113  A    between atoms: _273  and  _275
REMARK  114  A    between atoms: _275  and  _276
REMARK  115  A    between atoms: _275  and  _278
REMARK  116  A    between atoms: _278  and  _279
REMARK  117  A    between atoms: _279  and  _280
REMARK  118  A    between atoms: _280  and  _281
REMARK  119  A    between atoms: _290  and  _292
REMARK  120  A    between atoms: _292  and  _293
REMARK  121  A    between atoms: _292  and  _295
REMARK  122  A    between atoms: _295  and  _296
REMARK  123  A    between atoms: _301  and  _303
REMARK  124  A    between atoms: _303  and  _304
REMARK  125  A    between atoms: _303  and  _306
REMARK  126  A    between atoms: _306  and  _307
REMARK  127  A    between atoms: _307  and  _308
REMARK  128  A    between atoms: _308  and  _309
REMARK  129  A    between atoms: _318  and  _320
REMARK  130  A    between atoms: _320  and  _321
REMARK  131  A    between atoms: _320  and  _323
REMARK  132  A    between atoms: _323  and  _324
REMARK  133  A    between atoms: _327  and  _329
REMARK  134  A    between atoms: _329  and  _330
REMARK  135  A    between atoms: _329  and  _332
REMARK  136  A    between atoms: _332  and  _333
REMARK  137  A    between atoms: _336  and  _338
REMARK  138  A    between atoms: _338  and  _339
REMARK  139  A    between atoms: _338  and  _341
REMARK  140  A    between atoms: _341  and  _342
REMARK  141  A    between atoms: _345  and  _347
REMARK  142  A    between atoms: _347  and  _348
REMARK  143  A    between atoms: _347  and  _350
REMARK  144  A    between atoms: _350  and  _351
REMARK  145  A    between atoms: _354  and  _356
REMARK  146  A    between atoms: _356  and  _357
REMARK  147  A    between atoms: _359  and  _361
REMARK  148  A    between atoms: _361  and  _362
REMARK  149  A    between atoms: _365  and  _367
REMARK  150  A    between atoms: _367  and  _368
REMARK  151  A    between atoms: _367  and  _370
REMARK  152  A    between atoms: _370  and  _371
REMARK  153  A    between atoms: _374  and  _376
REMARK  154  A    between atoms: _376  and  _377
REMARK  155  A    between atoms: _376  and  _379
REMARK  156  A    between atoms: _379  and  _380
REMARK  157  A    between atoms: _383  and  _385
REMARK  158  A    between atoms: _385  and  _386
REMARK  159  A    between atoms: _385  and  _388
REMARK  160  A    between atoms: _388  and  _389
REMARK  161  A    between atoms: _392  and  _394
REMARK  162  A    between atoms: _394  and  _395
REMARK  163  A    between atoms: _394  and  _397
REMARK  164  A    between atoms: _400  and  _402
REMARK  165  A    between atoms: _402  and  _403
REMARK  166  A    between atoms: _402  and  _405
REMARK  167  A    between atoms: _405  and  _406
REMARK  168  A    between atoms: _406  and  _407
REMARK  169  A    between atoms: _407  and  _408
REMARK  170  A    between atoms: _408  and  _409
REMARK  171  A    between atoms: _413  and  _415
REMARK  172  A    between atoms: _415  and  _416
REMARK  173  A    between atoms: _415  and  _418
REMARK  174  A    between atoms: _418  and  _419
REMARK  175  A    between atoms: _419  and  _420
REMARK  176  A    between atoms: _422  and  _424
REMARK  177  A    between atoms: _424  and  _425
REMARK  178  A    between atoms: _424  and  _427
REMARK  179  A    between atoms: _427  and  _428
REMARK  180  A    between atoms: _431  and  _433
REMARK  181  A    between atoms: _433  and  _434
REMARK  182  A    between atoms: _436  and  _438
REMARK  183  A    between atoms: _438  and  _439
REMARK  184  A    between atoms: _441  and  _443
REMARK  185  A    between atoms: _443  and  _444
REMARK  186  A    between atoms: _443  and  _446
REMARK  187  A    between atoms: _446  and  _447
REMARK  188  A    between atoms: _450  and  _452
REMARK  189  A    between atoms: _452  and  _453
REMARK  190  A    between atoms: _455  and  _457
REMARK  191  A    between atoms: _457  and  _458
REMARK  192  A    between atoms: _460  and  _462
REMARK  193  A    between atoms: _462  and  _463
REMARK  194  A    between atoms: _462  and  _465
REMARK  195  A    between atoms: _465  and  _466
REMARK  196  A    between atoms: _472  and  _474
REMARK  197  A    between atoms: _474  and  _475
REMARK  198  A    between atoms: _474  and  _477
REMARK  199  A    between atoms: _477  and  _478
REMARK  200  A    between atoms: _481  and  _483
REMARK  201  A    between atoms: _483  and  _484
REMARK  202  A    between atoms: _483  and  _486
REMARK  203  A    between atoms: _489  and  _491
REMARK  204  A    between atoms: _491  and  _492
REMARK  205  A    between atoms: _491  and  _494
REMARK  206  A    between atoms: _494  and  _495
REMARK  207  A    between atoms: _499  and  _500
REMARK  208  A    between atoms: _505  and  _507
REMARK  209  A    between atoms: _507  and  _508
REMARK  210  A    between atoms: _507  and  _510
REMARK  211  A    between atoms: _510  and  _511
REMARK  212  A    between atoms: _515  and  _516
REMARK  213  A    between atoms: _521  and  _523
REMARK  214  A    between atoms: _523  and  _524
REMARK  215  A    between atoms: _523  and  _526
REMARK  216  A    between atoms: _529  and  _531
REMARK  217  A    between atoms: _531  and  _532
REMARK  218  A    between atoms: _531  and  _534
REMARK  219  A    between atoms: _534  and  _535
REMARK  220  A    between atoms: _540  and  _542
REMARK  221  A    between atoms: _542  and  _543
REMARK  222  A    between atoms: _542  and  _545
REMARK  223  A    between atoms: _545  and  _546
REMARK  224  A    between atoms: _549  and  _551
REMARK  225  A    between atoms: _551  and  _552
REMARK  226  A    between atoms: _551  and  _554
REMARK  227  A    between atoms: _554  and  _555
REMARK  228  A    between atoms: _558  and  _560
REMARK  229  A    between atoms: _560  and  _561
REMARK  230  A    between atoms: _563  and  _565
REMARK  231  A    between atoms: _565  and  _566
REMARK  232  A    between atoms: _565  and  _568
REMARK  233  A    between atoms: _568  and  _569
REMARK  234  A    between atoms: _569  and  _570
REMARK  235  A    between atoms: _570  and  _571
REMARK  236  A    between atoms: _580  and  _582
REMARK  237  A    between atoms: _582  and  _583
REMARK  238  A    between atoms: _582  and  _585
REMARK  239  A    between atoms: _585  and  _586
REMARK                            x       y       z     vdW  Elec       q    Type
REMARK                         _______ _______ _______ _____ _____    ______ ____
ROOT
ATOM      1  O   HOH     1      26.223  22.173  23.266  0.00  0.00    +0.000 OA
ENDROOT
TORSDOF 0
REMARK  Name = ../refined-set-2016/2aod/2aod_pocket.pdb
REMARK  239 active torsions:
REMARK  status: ('A' for Active; 'I' for Inactive)
REMARK    1  A    between atoms: _1  and  _3
REMARK    2  A    between atoms: _3  and  _4
REMARK    3  A    between atoms: _3  and  _6
REMARK    4  A    between atoms: _6  and  _7
REMARK    5  A    between atoms: _7  and  _8
REMARK    6  A    between atoms: _8  and  _9
REMARK    7  A    between atoms: _18  and  _20
REMARK    8  A    between atoms: _20  and  _21
REMARK    9  A    between atoms: _20  and  _23
REMARK   10  A    between atoms: _23  and  _24
REMARK   11  A    between atoms: _27  and  _29
REMARK   12  A    between atoms: _29  and  _30
REMARK   13  A    between atoms: _29  and  _32
REMARK   14  A    between atoms: _32  and  _33
REMARK   15  A    between atoms: _33  and  _34
REMARK   16  A    between atoms: _37  and  _39
REMARK   17  A    between atoms: _39  and  _40
REMARK   18  A    between atoms: _39  and  _42
REMARK   19  A    between atoms: _42  and  _43
REMARK   20  A    between atoms: _46  and  _48
REMARK   21  A    between atoms: _48  and  _49
REMARK   22  A    between atoms: _48  and  _51
REMARK   23  A    between atoms: _51  and  _52
REMARK   24  A    between atoms: _55  and  _57
REMARK   25  A    between atoms: _57  and  _58
REMARK   26  A    between atoms: _57  and  _60
REMARK   27  A    between atoms: _60  and  _61
REMARK   28  A    between atoms: _64  and  _66
REMARK   29  A    between atoms: _66  and  _67
REMARK   30  A    between atoms: _69  and  _71
REMARK   31  A    between atoms: _71  and  _72
REMARK   32  A    between atoms: _75  and  _77
REMARK   33  A    between atoms: _77  and  _78
REMARK   34  A    between atoms: _77  and  _80
REMARK   35  A    between atoms: _80  and  _81
REMARK   36  A    between atoms: _84  and  _86
REMARK   37  A    between atoms: _86  and  _87
REMARK   38  A    between atoms: _86  and  _89
REMARK   39  A    between atoms: _89  and  _90
REMARK   40  A    between atoms: _93  and  _95
REMARK   41  A    between atoms: _95  and  _96
REMARK   42  A    between atoms: _95  and  _98
REMARK   43  A    between atoms: _98  and  _99
REMARK   44  A    between atoms: _102  and  _104
REMARK   45  A    between atoms: _104  and  _105
REMARK   46  A    between atoms: _104  and  _107
REMARK   47  A    between atoms: _110  and  _112
REMARK   48  A    between atoms: _112  and  _113
REMARK   49  A    between atoms: _112  and  _115
REMARK   50  A    between atoms: _115  and  _116
REMARK   51  A    between atoms: _116  and  _117
REMARK   52  A    between atoms: _117  and  _118
REMARK   53  A    between atoms: _118  and  _119
REMARK   54  A    between atoms: _123  and  _125
REMARK   55  A    between atoms: _125  and  _126
REMARK   56  A    between atoms: _125  and  _128
REMARK   57  A    between atoms: _128  and  _129
REMARK   58  A    between atoms: _129  and  _130
REMARK   59  A    between atoms: _132  and  _134
REMARK   60  A    between atoms: _134  and  _135
REMARK   61  A    between atoms: _134  and  _137
REMARK   62  A    between atoms: _137  and  _138
REMARK   63  A    between atoms: _141  and  _143
REMARK   64  A    between atoms: _143  and  _144
REMARK   65  A    between atoms: _146  and  _148
REMARK   66  A    between atoms: _148  and  _149
REMARK   67  A    between atoms: _151  and  _153
REMARK   68  A    between atoms: _153  and  _154
REMARK   69  A    between atoms: _153  and  _156
REMARK   70  A    between atoms: _156  and  _157
REMARK   71  A    between atoms: _160  and  _162
REMARK   72  A    between atoms: _162  and  _163
REMARK   73  A    between atoms: _165  and  _167
REMARK   74  A    between atoms: _167  and  _168
REMARK   75  A    between atoms: _170  and  _172
REMARK   76  A    between atoms: _172  and  _173
REMARK   77  A    between atoms: _172  and  _175
REMARK   78  A    between atoms: _175  and  _176
REMARK   79  A    between atoms: _182  and  _184
REMARK   80  A    between atoms: _184  and  _185
REMARK   81  A    between atoms: _184  and  _187
REMARK   82  A    between atoms: _187  and  _188
REMARK   83  A    between atoms: _191  and  _193
REMARK   84  A    between atoms: _193  and  _194
REMARK   85  A    between atoms: _193  and  _196
REMARK   86  A    between atoms: _199  and  _201
REMARK   87  A    between atoms: _201  and  _202
REMARK   88  A    between atoms: _201  and  _204
REMARK   89  A    between atoms: _204  and  _205
REMARK   90  A    between atoms: _209  and  _210
REMARK   91  A    between atoms: _215  and  _217
REMARK   92  A    between atoms: _217  and  _218
REMARK   93  A    between atoms: _217  and  _220
REMARK   94  A    between atoms: _220  and  _221
REMARK   95  A    between atoms: _225  and  _226
REMARK   96  A    between atoms: _231  and  _233
REMARK   97  A    between atoms: _233  and  _234
REMARK   98  A    between atoms: _233  and  _236
REMARK   99  A    between atoms: _239  and  _241
REMARK  100  A    between atoms: _241  and  _242
REMARK  101  A    between atoms: _241  and  _244
REMARK  102  A    between atoms: _244  and  _245
REMARK  103  A    between atoms: _250  and  _252
REMARK  104  A    between atoms: _252  and  _253
REMARK  105  A    between atoms: _252  and  _255
REMARK  106  A    between atoms: _255  and  _256
REMARK  107  A    between atoms: _259  and  _261
REMARK  108  A    between atoms: _261  and  _262
REMARK  109  A    between atoms: _261  and  _264
REMARK  110  A    between atoms: _264  and  _265
REMARK  111  A    between atoms: _268  and  _270
REMARK  112  A    between atoms: _270  and  _271
REMARK  113  A    between atoms: _273  and  _275
REMARK  114  A    between atoms: _275  and  _276
REMARK  115  A    between atoms: _275  and  _278
REMARK  116  A    between atoms: _278  and  _279
REMARK  117  A    between atoms: _279  and  _280
REMARK  118  A    between atoms: _280  and  _281
REMARK  119  A    between atoms: _290  and  _292
REMARK  120  A    between atoms: _292  and  _293
REMARK  121  A    between atoms: _292  and  _295
REMARK  122  A    between atoms: _295  and  _296
REMARK  123  A    between atoms: _301  and  _303
REMARK  124  A    between atoms: _303  and  _304
REMARK  125  A    between atoms: _303  and  _306
REMARK  126  A    between atoms: _306  and  _307
REMARK  127  A    between atoms: _307  and  _308
REMARK  128  A    between atoms: _308  and  _309
REMARK  129  A    between atoms: _318  and  _320
REMARK  130  A    between atoms: _320  and  _321
REMARK  131  A    between atoms: _320  and  _323
REMARK  132  A    between atoms: _323  and  _324
REMARK  133  A    between atoms: _327  and  _329
REMARK  134  A    between atoms: _329  and  _330
REMARK  135  A    between atoms: _329  and  _332
REMARK  136  A    between atoms: _332  and  _333
REMARK  137  A    between atoms: _336  and  _338
REMARK  138  A    between atoms: _338  and  _339
REMARK  139  A    between atoms: _338  and  _341
REMARK  140  A    between atoms: _341  and  _342
REMARK  141  A    between atoms: _345  and  _347
REMARK  142  A    between atoms: _347  and  _348
REMARK  143  A    between atoms: _347  and  _350
REMARK  144  A    between atoms: _350  and  _351
REMARK  145  A    between atoms: _354  and  _356
REMARK  146  A    between atoms: _356  and  _357
REMARK  147  A    between atoms: _359  and  _361
REMARK  148  A    between atoms: _361  and  _362
REMARK  149  A    between atoms: _365  and  _367
REMARK  150  A    between atoms: _367  and  _368
REMARK  151  A    between atoms: _367  and  _370
REMARK  152  A    between atoms: _370  and  _371
REMARK  153  A    between atoms: _374  and  _376
REMARK  154  A    between atoms: _376  and  _377
REMARK  155  A    between atoms: _376  and  _379
REMARK  156  A    between atoms: _379  and  _380
REMARK  157  A    between atoms: _383  and  _385
REMARK  158  A    between atoms: _385  and  _386
REMARK  159  A    between atoms: _385  and  _388
REMARK  160  A    between atoms: _388  and  _389
REMARK  161  A    between atoms: _392  and  _394
REMARK  162  A    between atoms: _394  and  _395
REMARK  163  A    between atoms: _394  and  _397
REMARK  164  A    between atoms: _400  and  _402
REMARK  165  A    between atoms: _402  and  _403
REMARK  166  A    between atoms: _402  and  _405
REMARK  167  A    between atoms: _405  and  _406
REMARK  168  A    between atoms: _406  and  _407
REMARK  169  A    between atoms: _407  and  _408
REMARK  170  A    between atoms: _408  and  _409
REMARK  171  A    between atoms: _413  and  _415
REMARK  172  A    between atoms: _415  and  _416
REMARK  173  A    between atoms: _415  and  _418
REMARK  174  A    between atoms: _418  and  _419
REMARK  175  A    between atoms: _419  and  _420
REMARK  176  A    between atoms: _422  and  _424
REMARK  177  A    between atoms: _424  and  _425
REMARK  178  A    between atoms: _424  and  _427
REMARK  179  A    between atoms: _427  and  _428
REMARK  180  A    between atoms: _431  and  _433
REMARK  181  A    between atoms: _433  and  _434
REMARK  182  A    between atoms: _436  and  _438
REMARK  183  A    between atoms: _438  and  _439
REMARK  184  A    between atoms: _441  and  _443
REMARK  185  A    between atoms: _443  and  _444
REMARK  186  A    between atoms: _443  and  _446
REMARK  187  A    between atoms: _446  and  _447
REMARK  188  A    between atoms: _450  and  _452
REMARK  189  A    between atoms: _452  and  _453
REMARK  190  A    between atoms: _455  and  _457
REMARK  191  A    between atoms: _457  and  _458
REMARK  192  A    between atoms: _460  and  _462
REMARK  193  A    between atoms: _462  and  _463
REMARK  194  A    between atoms: _462  and  _465
REMARK  195  A    between atoms: _465  and  _466
REMARK  196  A    between atoms: _472  and  _474
REMARK  197  A    between atoms: _474  and  _475
REMARK  198  A    between atoms: _474  and  _477
REMARK  199  A    between atoms: _477  and  _478
REMARK  200  A    between atoms: _481  and  _483
REMARK  201  A    between atoms: _483  and  _484
REMARK  202  A    between atoms: _483  and  _486
REMARK  203  A    between atoms: _489  and  _491
REMARK  204  A    between atoms: _491  and  _492
REMARK  205  A    between atoms: _491  and  _494
REMARK  206  A    between atoms: _494  and  _495
REMARK  207  A    between atoms: _499  and  _500
REMARK  208  A    between atoms: _505  and  _507
REMARK  209  A    between atoms: _507  and  _508
REMARK  210  A    between atoms: _507  and  _510
REMARK  211  A    between atoms: _510  and  _511
REMARK  212  A    between atoms: _515  and  _516
REMARK  213  A    between atoms: _521  and  _523
REMARK  214  A    between atoms: _523  and  _524
REMARK  215  A    between atoms: _523  and  _526
REMARK  216  A    between atoms: _529  and  _531
REMARK  217  A    between atoms: _531  and  _532
REMARK  218  A    between atoms: _531  and  _534
REMARK  219  A    between atoms: _534  and  _535
REMARK  220  A    between atoms: _540  and  _542
REMARK  221  A    between atoms: _542  and  _543
REMARK  222  A    between atoms: _542  and  _545
REMARK  223  A    between atoms: _545  and  _546
REMARK  224  A    between atoms: _549  and  _551
REMARK  225  A    between atoms: _551  and  _552
REMARK  226  A    between atoms: _551  and  _554
REMARK  227  A    between atoms: _554  and  _555
REMARK  228  A    between atoms: _558  and  _560
REMARK  229  A    between atoms: _560  and  _561
REMARK  230  A    between atoms: _563  and  _565
REMARK  231  A    between atoms: _565  and  _566
REMARK  232  A    between atoms: _565  and  _568
REMARK  233  A    between atoms: _568  and  _569
REMARK  234  A    between atoms: _569  and  _570
REMARK  235  A    between atoms: _570  and  _571
REMARK  236  A    between atoms: _580  and  _582
REMARK  237  A    between atoms: _582  and  _583
REMARK  238  A    between atoms: _582  and  _585
REMARK  239  A    between atoms: _585  and  _586
REMARK                            x       y       z     vdW  Elec       q    Type
REMARK                         _______ _______ _______ _____ _____    ______ ____
ROOT
ATOM      1  O   HOH     1       6.328  13.031  24.780  0.00  0.00    +0.000 OA
ENDROOT
TORSDOF 0
REMARK  Name = ../refined-set-2016/2aod/2aod_pocket.pdb
REMARK  239 active torsions:
REMARK  status: ('A' for Active; 'I' for Inactive)
REMARK    1  A    between atoms: _1  and  _3
REMARK    2  A    between atoms: _3  and  _4
REMARK    3  A    between atoms: _3  and  _6
REMARK    4  A    between atoms: _6  and  _7
REMARK    5  A    between atoms: _7  and  _8
REMARK    6  A    between atoms: _8  and  _9
REMARK    7  A    between atoms: _18  and  _20
REMARK    8  A    between atoms: _20  and  _21
REMARK    9  A    between atoms: _20  and  _23
REMARK   10  A    between atoms: _23  and  _24
REMARK   11  A    between atoms: _27  and  _29
REMARK   12  A    between atoms: _29  and  _30
REMARK   13  A    between atoms: _29  and  _32
REMARK   14  A    between atoms: _32  and  _33
REMARK   15  A    between atoms: _33  and  _34
REMARK   16  A    between atoms: _37  and  _39
REMARK   17  A    between atoms: _39  and  _40
REMARK   18  A    between atoms: _39  and  _42
REMARK   19  A    between atoms: _42  and  _43
REMARK   20  A    between atoms: _46  and  _48
REMARK   21  A    between atoms: _48  and  _49
REMARK   22  A    between atoms: _48  and  _51
REMARK   23  A    between atoms: _51  and  _52
REMARK   24  A    between atoms: _55  and  _57
REMARK   25  A    between atoms: _57  and  _58
REMARK   26  A    between atoms: _57  and  _60
REMARK   27  A    between atoms: _60  and  _61
REMARK   28  A    between atoms: _64  and  _66
REMARK   29  A    between atoms: _66  and  _67
REMARK   30  A    between atoms: _69  and  _71
REMARK   31  A    between atoms: _71  and  _72
REMARK   32  A    between atoms: _75  and  _77
REMARK   33  A    between atoms: _77  and  _78
REMARK   34  A    between atoms: _77  and  _80
REMARK   35  A    between atoms: _80  and  _81
REMARK   36  A    between atoms: _84  and  _86
REMARK   37  A    between atoms: _86  and  _87
REMARK   38  A    between atoms: _86  and  _89
REMARK   39  A    between atoms: _89  and  _90
REMARK   40  A    between atoms: _93  and  _95
REMARK   41  A    between atoms: _95  and  _96
REMARK   42  A    between atoms: _95  and  _98
REMARK   43  A    between atoms: _98  and  _99
REMARK   44  A    between atoms: _102  and  _104
REMARK   45  A    between atoms: _104  and  _105
REMARK   46  A    between atoms: _104  and  _107
REMARK   47  A    between atoms: _110  and  _112
REMARK   48  A    between atoms: _112  and  _113
REMARK   49  A    between atoms: _112  and  _115
REMARK   50  A    between atoms: _115  and  _116
REMARK   51  A    between atoms: _116  and  _117
REMARK   52  A    between atoms: _117  and  _118
REMARK   53  A    between atoms: _118  and  _119
REMARK   54  A    between atoms: _123  and  _125
REMARK   55  A    between atoms: _125  and  _126
REMARK   56  A    between atoms: _125  and  _128
REMARK   57  A    between atoms: _128  and  _129
REMARK   58  A    between atoms: _129  and  _130
REMARK   59  A    between atoms: _132  and  _134
REMARK   60  A    between atoms: _134  and  _135
REMARK   61  A    between atoms: _134  and  _137
REMARK   62  A    between atoms: _137  and  _138
REMARK   63  A    between atoms: _141  and  _143
REMARK   64  A    between atoms: _143  and  _144
REMARK   65  A    between atoms: _146  and  _148
REMARK   66  A    between atoms: _148  and  _149
REMARK   67  A    between atoms: _151  and  _153
REMARK   68  A    between atoms: _153  and  _154
REMARK   69  A    between atoms: _153  and  _156
REMARK   70  A    between atoms: _156  and  _157
REMARK   71  A    between atoms: _160  and  _162
REMARK   72  A    between atoms: _162  and  _163
REMARK   73  A    between atoms: _165  and  _167
REMARK   74  A    between atoms: _167  and  _168
REMARK   75  A    between atoms: _170  and  _172
REMARK   76  A    between atoms: _172  and  _173
REMARK   77  A    between atoms: _172  and  _175
REMARK   78  A    between atoms: _175  and  _176
REMARK   79  A    between atoms: _182  and  _184
REMARK   80  A    between atoms: _184  and  _185
REMARK   81  A    between atoms: _184  and  _187
REMARK   82  A    between atoms: _187  and  _188
REMARK   83  A    between atoms: _191  and  _193
REMARK   84  A    between atoms: _193  and  _194
REMARK   85  A    between atoms: _193  and  _196
REMARK   86  A    between atoms: _199  and  _201
REMARK   87  A    between atoms: _201  and  _202
REMARK   88  A    between atoms: _201  and  _204
REMARK   89  A    between atoms: _204  and  _205
REMARK   90  A    between atoms: _209  and  _210
REMARK   91  A    between atoms: _215  and  _217
REMARK   92  A    between atoms: _217  and  _218
REMARK   93  A    between atoms: _217  and  _220
REMARK   94  A    between atoms: _220  and  _221
REMARK   95  A    between atoms: _225  and  _226
REMARK   96  A    between atoms: _231  and  _233
REMARK   97  A    between atoms: _233  and  _234
REMARK   98  A    between atoms: _233  and  _236
REMARK   99  A    between atoms: _239  and  _241
REMARK  100  A    between atoms: _241  and  _242
REMARK  101  A    between atoms: _241  and  _244
REMARK  102  A    between atoms: _244  and  _245
REMARK  103  A    between atoms: _250  and  _252
REMARK  104  A    between atoms: _252  and  _253
REMARK  105  A    between atoms: _252  and  _255
REMARK  106  A    between atoms: _255  and  _256
REMARK  107  A    between atoms: _259  and  _261
REMARK  108  A    between atoms: _261  and  _262
REMARK  109  A    between atoms: _261  and  _264
REMARK  110  A    between atoms: _264  and  _265
REMARK  111  A    between atoms: _268  and  _270
REMARK  112  A    between atoms: _270  and  _271
REMARK  113  A    between atoms: _273  and  _275
REMARK  114  A    between atoms: _275  and  _276
REMARK  115  A    between atoms: _275  and  _278
REMARK  116  A    between atoms: _278  and  _279
REMARK  117  A    between atoms: _279  and  _280
REMARK  118  A    between atoms: _280  and  _281
REMARK  119  A    between atoms: _290  and  _292
REMARK  120  A    between atoms: _292  and  _293
REMARK  121  A    between atoms: _292  and  _295
REMARK  122  A    between atoms: _295  and  _296
REMARK  123  A    between atoms: _301  and  _303
REMARK  124  A    between atoms: _303  and  _304
REMARK  125  A    between atoms: _303  and  _306
REMARK  126  A    between atoms: _306  and  _307
REMARK  127  A    between atoms: _307  and  _308
REMARK  128  A    between atoms: _308  and  _309
REMARK  129  A    between atoms: _318  and  _320
REMARK  130  A    between atoms: _320  and  _321
REMARK  131  A    between atoms: _320  and  _323
REMARK  132  A    between atoms: _323  and  _324
REMARK  133  A    between atoms: _327  and  _329
REMARK  134  A    between atoms: _329  and  _330
REMARK  135  A    between atoms: _329  and  _332
REMARK  136  A    between atoms: _332  and  _333
REMARK  137  A    between atoms: _336  and  _338
REMARK  138  A    between atoms: _338  and  _339
REMARK  139  A    between atoms: _338  and  _341
REMARK  140  A    between atoms: _341  and  _342
REMARK  141  A    between atoms: _345  and  _347
REMARK  142  A    between atoms: _347  and  _348
REMARK  143  A    between atoms: _347  and  _350
REMARK  144  A    between atoms: _350  and  _351
REMARK  145  A    between atoms: _354  and  _356
REMARK  146  A    between atoms: _356  and  _357
REMARK  147  A    between atoms: _359  and  _361
REMARK  148  A    between atoms: _361  and  _362
REMARK  149  A    between atoms: _365  and  _367
REMARK  150  A    between atoms: _367  and  _368
REMARK  151  A    between atoms: _367  and  _370
REMARK  152  A    between atoms: _370  and  _371
REMARK  153  A    between atoms: _374  and  _376
REMARK  154  A    between atoms: _376  and  _377
REMARK  155  A    between atoms: _376  and  _379
REMARK  156  A    between atoms: _379  and  _380
REMARK  157  A    between atoms: _383  and  _385
REMARK  158  A    between atoms: _385  and  _386
REMARK  159  A    between atoms: _385  and  _388
REMARK  160  A    between atoms: _388  and  _389
REMARK  161  A    between atoms: _392  and  _394
REMARK  162  A    between atoms: _394  and  _395
REMARK  163  A    between atoms: _394  and  _397
REMARK  164  A    between atoms: _400  and  _402
REMARK  165  A    between atoms: _402  and  _403
REMARK  166  A    between atoms: _402  and  _405
REMARK  167  A    between atoms: _405  and  _406
REMARK  168  A    between atoms: _406  and  _407
REMARK  169  A    between atoms: _407  and  _408
REMARK  170  A    between atoms: _408  and  _409
REMARK  171  A    between atoms: _413  and  _415
REMARK  172  A    between atoms: _415  and  _416
REMARK  173  A    between atoms: _415  and  _418
REMARK  174  A    between atoms: _418  and  _419
REMARK  175  A    between atoms: _419  and  _420
REMARK  176  A    between atoms: _422  and  _424
REMARK  177  A    between atoms: _424  and  _425
REMARK  178  A    between atoms: _424  and  _427
REMARK  179  A    between atoms: _427  and  _428
REMARK  180  A    between atoms: _431  and  _433
REMARK  181  A    between atoms: _433  and  _434
REMARK  182  A    between atoms: _436  and  _438
REMARK  183  A    between atoms: _438  and  _439
REMARK  184  A    between atoms: _441  and  _443
REMARK  185  A    between atoms: _443  and  _444
REMARK  186  A    between atoms: _443  and  _446
REMARK  187  A    between atoms: _446  and  _447
REMARK  188  A    between atoms: _450  and  _452
REMARK  189  A    between atoms: _452  and  _453
REMARK  190  A    between atoms: _455  and  _457
REMARK  191  A    between atoms: _457  and  _458
REMARK  192  A    between atoms: _460  and  _462
REMARK  193  A    between atoms: _462  and  _463
REMARK  194  A    between atoms: _462  and  _465
REMARK  195  A    between atoms: _465  and  _466
REMARK  196  A    between atoms: _472  and  _474
REMARK  197  A    between atoms: _474  and  _475
REMARK  198  A    between atoms: _474  and  _477
REMARK  199  A    between atoms: _477  and  _478
REMARK  200  A    between atoms: _481  and  _483
REMARK  201  A    between atoms: _483  and  _484
REMARK  202  A    between atoms: _483  and  _486
REMARK  203  A    between atoms: _489  and  _491
REMARK  204  A    between atoms: _491  and  _492
REMARK  205  A    between atoms: _491  and  _494
REMARK  206  A    between atoms: _494  and  _495
REMARK  207  A    between atoms: _499  and  _500
REMARK  208  A    between atoms: _505  and  _507
REMARK  209  A    between atoms: _507  and  _508
REMARK  210  A    between atoms: _507  and  _510
REMARK  211  A    between atoms: _510  and  _511
REMARK  212  A    between atoms: _515  and  _516
REMARK  213  A    between atoms: _521  and  _523
REMARK  214  A    between atoms: _523  and  _524
REMARK  215  A    between atoms: _523  and  _526
REMARK  216  A    between atoms: _529  and  _531
REMARK  217  A    between atoms: _531  and  _532
REMARK  218  A    between atoms: _531  and  _534
REMARK  219  A    between atoms: _534  and  _535
REMARK  220  A    between atoms: _540  and  _542
REMARK  221  A    between atoms: _542  and  _543
REMARK  222  A    between atoms: _542  and  _545
REMARK  223  A    between atoms: _545  and  _546
REMARK  224  A    between atoms: _549  and  _551
REMARK  225  A    between atoms: _551  and  _552
REMARK  226  A    between atoms: _551  and  _554
REMARK  227  A    between atoms: _554  and  _555
REMARK  228  A    between atoms: _558  and  _560
REMARK  229  A    between atoms: _560  and  _561
REMARK  230  A    between atoms: _563  and  _565
REMARK  231  A    between atoms: _565  and  _566
REMARK  232  A    between atoms: _565  and  _568
REMARK  233  A    between atoms: _568  and  _569
REMARK  234  A    between atoms: _569  and  _570
REMARK  235  A    between atoms: _570  and  _571
REMARK  236  A    between atoms: _580  and  _582
REMARK  237  A    between atoms: _582  and  _583
REMARK  238  A    between atoms: _582  and  _585
REMARK  239  A    between atoms: _585  and  _586
REMARK                            x       y       z     vdW  Elec       q    Type
REMARK                         _______ _______ _______ _____ _____    ______ ____
ROOT
ATOM      1  O   HOH     1       6.681  15.888  25.826  0.00  0.00    +0.000 OA
ENDROOT
TORSDOF 0
REMARK  Name = ../refined-set-2016/2aod/2aod_pocket.pdb
REMARK  239 active torsions:
REMARK  status: ('A' for Active; 'I' for Inactive)
REMARK    1  A    between atoms: _1  and  _3
REMARK    2  A    between atoms: _3  and  _4
REMARK    3  A    between atoms: _3  and  _6
REMARK    4  A    between atoms: _6  and  _7
REMARK    5  A    between atoms: _7  and  _8
REMARK    6  A    between atoms: _8  and  _9
REMARK    7  A    between atoms: _18  and  _20
REMARK    8  A    between atoms: _20  and  _21
REMARK    9  A    between atoms: _20  and  _23
REMARK   10  A    between atoms: _23  and  _24
REMARK   11  A    between atoms: _27  and  _29
REMARK   12  A    between atoms: _29  and  _30
REMARK   13  A    between atoms: _29  and  _32
REMARK   14  A    between atoms: _32  and  _33
REMARK   15  A    between atoms: _33  and  _34
REMARK   16  A    between atoms: _37  and  _39
REMARK   17  A    between atoms: _39  and  _40
REMARK   18  A    between atoms: _39  and  _42
REMARK   19  A    between atoms: _42  and  _43
REMARK   20  A    between atoms: _46  and  _48
REMARK   21  A    between atoms: _48  and  _49
REMARK   22  A    between atoms: _48  and  _51
REMARK   23  A    between atoms: _51  and  _52
REMARK   24  A    between atoms: _55  and  _57
REMARK   25  A    between atoms: _57  and  _58
REMARK   26  A    between atoms: _57  and  _60
REMARK   27  A    between atoms: _60  and  _61
REMARK   28  A    between atoms: _64  and  _66
REMARK   29  A    between atoms: _66  and  _67
REMARK   30  A    between atoms: _69  and  _71
REMARK   31  A    between atoms: _71  and  _72
REMARK   32  A    between atoms: _75  and  _77
REMARK   33  A    between atoms: _77  and  _78
REMARK   34  A    between atoms: _77  and  _80
REMARK   35  A    between atoms: _80  and  _81
REMARK   36  A    between atoms: _84  and  _86
REMARK   37  A    between atoms: _86  and  _87
REMARK   38  A    between atoms: _86  and  _89
REMARK   39  A    between atoms: _89  and  _90
REMARK   40  A    between atoms: _93  and  _95
REMARK   41  A    between atoms: _95  and  _96
REMARK   42  A    between atoms: _95  and  _98
REMARK   43  A    between atoms: _98  and  _99
REMARK   44  A    between atoms: _102  and  _104
REMARK   45  A    between atoms: _104  and  _105
REMARK   46  A    between atoms: _104  and  _107
REMARK   47  A    between atoms: _110  and  _112
REMARK   48  A    between atoms: _112  and  _113
REMARK   49  A    between atoms: _112  and  _115
REMARK   50  A    between atoms: _115  and  _116
REMARK   51  A    between atoms: _116  and  _117
REMARK   52  A    between atoms: _117  and  _118
REMARK   53  A    between atoms: _118  and  _119
REMARK   54  A    between atoms: _123  and  _125
REMARK   55  A    between atoms: _125  and  _126
REMARK   56  A    between atoms: _125  and  _128
REMARK   57  A    between atoms: _128  and  _129
REMARK   58  A    between atoms: _129  and  _130
REMARK   59  A    between atoms: _132  and  _134
REMARK   60  A    between atoms: _134  and  _135
REMARK   61  A    between atoms: _134  and  _137
REMARK   62  A    between atoms: _137  and  _138
REMARK   63  A    between atoms: _141  and  _143
REMARK   64  A    between atoms: _143  and  _144
REMARK   65  A    between atoms: _146  and  _148
REMARK   66  A    between atoms: _148  and  _149
REMARK   67  A    between atoms: _151  and  _153
REMARK   68  A    between atoms: _153  and  _154
REMARK   69  A    between atoms: _153  and  _156
REMARK   70  A    between atoms: _156  and  _157
REMARK   71  A    between atoms: _160  and  _162
REMARK   72  A    between atoms: _162  and  _163
REMARK   73  A    between atoms: _165  and  _167
REMARK   74  A    between atoms: _167  and  _168
REMARK   75  A    between atoms: _170  and  _172
REMARK   76  A    between atoms: _172  and  _173
REMARK   77  A    between atoms: _172  and  _175
REMARK   78  A    between atoms: _175  and  _176
REMARK   79  A    between atoms: _182  and  _184
REMARK   80  A    between atoms: _184  and  _185
REMARK   81  A    between atoms: _184  and  _187
REMARK   82  A    between atoms: _187  and  _188
REMARK   83  A    between atoms: _191  and  _193
REMARK   84  A    between atoms: _193  and  _194
REMARK   85  A    between atoms: _193  and  _196
REMARK   86  A    between atoms: _199  and  _201
REMARK   87  A    between atoms: _201  and  _202
REMARK   88  A    between atoms: _201  and  _204
REMARK   89  A    between atoms: _204  and  _205
REMARK   90  A    between atoms: _209  and  _210
REMARK   91  A    between atoms: _215  and  _217
REMARK   92  A    between atoms: _217  and  _218
REMARK   93  A    between atoms: _217  and  _220
REMARK   94  A    between atoms: _220  and  _221
REMARK   95  A    between atoms: _225  and  _226
REMARK   96  A    between atoms: _231  and  _233
REMARK   97  A    between atoms: _233  and  _234
REMARK   98  A    between atoms: _233  and  _236
REMARK   99  A    between atoms: _239  and  _241
REMARK  100  A    between atoms: _241  and  _242
REMARK  101  A    between atoms: _241  and  _244
REMARK  102  A    between atoms: _244  and  _245
REMARK  103  A    between atoms: _250  and  _252
REMARK  104  A    between atoms: _252  and  _253
REMARK  105  A    between atoms: _252  and  _255
REMARK  106  A    between atoms: _255  and  _256
REMARK  107  A    between atoms: _259  and  _261
REMARK  108  A    between atoms: _261  and  _262
REMARK  109  A    between atoms: _261  and  _264
REMARK  110  A    between atoms: _264  and  _265
REMARK  111  A    between atoms: _268  and  _270
REMARK  112  A    between atoms: _270  and  _271
REMARK  113  A    between atoms: _273  and  _275
REMARK  114  A    between atoms: _275  and  _276
REMARK  115  A    between atoms: _275  and  _278
REMARK  116  A    between atoms: _278  and  _279
REMARK  117  A    between atoms: _279  and  _280
REMARK  118  A    between atoms: _280  and  _281
REMARK  119  A    between atoms: _290  and  _292
REMARK  120  A    between atoms: _292  and  _293
REMARK  121  A    between atoms: _292  and  _295
REMARK  122  A    between atoms: _295  and  _296
REMARK  123  A    between atoms: _301  and  _303
REMARK  124  A    between atoms: _303  and  _304
REMARK  125  A    between atoms: _303  and  _306
REMARK  126  A    between atoms: _306  and  _307
REMARK  127  A    between atoms: _307  and  _308
REMARK  128  A    between atoms: _308  and  _309
REMARK  129  A    between atoms: _318  and  _320
REMARK  130  A    between atoms: _320  and  _321
REMARK  131  A    between atoms: _320  and  _323
REMARK  132  A    between atoms: _323  and  _324
REMARK  133  A    between atoms: _327  and  _329
REMARK  134  A    between atoms: _329  and  _330
REMARK  135  A    between atoms: _329  and  _332
REMARK  136  A    between atoms: _332  and  _333
REMARK  137  A    between atoms: _336  and  _338
REMARK  138  A    between atoms: _338  and  _339
REMARK  139  A    between atoms: _338  and  _341
REMARK  140  A    between atoms: _341  and  _342
REMARK  141  A    between atoms: _345  and  _347
REMARK  142  A    between atoms: _347  and  _348
REMARK  143  A    between atoms: _347  and  _350
REMARK  144  A    between atoms: _350  and  _351
REMARK  145  A    between atoms: _354  and  _356
REMARK  146  A    between atoms: _356  and  _357
REMARK  147  A    between atoms: _359  and  _361
REMARK  148  A    between atoms: _361  and  _362
REMARK  149  A    between atoms: _365  and  _367
REMARK  150  A    between atoms: _367  and  _368
REMARK  151  A    between atoms: _367  and  _370
REMARK  152  A    between atoms: _370  and  _371
REMARK  153  A    between atoms: _374  and  _376
REMARK  154  A    between atoms: _376  and  _377
REMARK  155  A    between atoms: _376  and  _379
REMARK  156  A    between atoms: _379  and  _380
REMARK  157  A    between atoms: _383  and  _385
REMARK  158  A    between atoms: _385  and  _386
REMARK  159  A    between atoms: _385  and  _388
REMARK  160  A    between atoms: _388  and  _389
REMARK  161  A    between atoms: _392  and  _394
REMARK  162  A    between atoms: _394  and  _395
REMARK  163  A    between atoms: _394  and  _397
REMARK  164  A    between atoms: _400  and  _402
REMARK  165  A    between atoms: _402  and  _403
REMARK  166  A    between atoms: _402  and  _405
REMARK  167  A    between atoms: _405  and  _406
REMARK  168  A    between atoms: _406  and  _407
REMARK  169  A    between atoms: _407  and  _408
REMARK  170  A    between atoms: _408  and  _409
REMARK  171  A    between atoms: _413  and  _415
REMARK  172  A    between atoms: _415  and  _416
REMARK  173  A    between atoms: _415  and  _418
REMARK  174  A    between atoms: _418  and  _419
REMARK  175  A    between atoms: _419  and  _420
REMARK  176  A    between atoms: _422  and  _424
REMARK  177  A    between atoms: _424  and  _425
REMARK  178  A    between atoms: _424  and  _427
REMARK  179  A    between atoms: _427  and  _428
REMARK  180  A    between atoms: _431  and  _433
REMARK  181  A    between atoms: _433  and  _434
REMARK  182  A    between atoms: _436  and  _438
REMARK  183  A    between atoms: _438  and  _439
REMARK  184  A    between atoms: _441  and  _443
REMARK  185  A    between atoms: _443  and  _444
REMARK  186  A    between atoms: _443  and  _446
REMARK  187  A    between atoms: _446  and  _447
REMARK  188  A    between atoms: _450  and  _452
REMARK  189  A    between atoms: _452  and  _453
REMARK  190  A    between atoms: _455  and  _457
REMARK  191  A    between atoms: _457  and  _458
REMARK  192  A    between atoms: _460  and  _462
REMARK  193  A    between atoms: _462  and  _463
REMARK  194  A    between atoms: _462  and  _465
REMARK  195  A    between atoms: _465  and  _466
REMARK  196  A    between atoms: _472  and  _474
REMARK  197  A    between atoms: _474  and  _475
REMARK  198  A    between atoms: _474  and  _477
REMARK  199  A    between atoms: _477  and  _478
REMARK  200  A    between atoms: _481  and  _483
REMARK  201  A    between atoms: _483  and  _484
REMARK  202  A    between atoms: _483  and  _486
REMARK  203  A    between atoms: _489  and  _491
REMARK  204  A    between atoms: _491  and  _492
REMARK  205  A    between atoms: _491  and  _494
REMARK  206  A    between atoms: _494  and  _495
REMARK  207  A    between atoms: _499  and  _500
REMARK  208  A    between atoms: _505  and  _507
REMARK  209  A    between atoms: _507  and  _508
REMARK  210  A    between atoms: _507  and  _510
REMARK  211  A    between atoms: _510  and  _511
REMARK  212  A    between atoms: _515  and  _516
REMARK  213  A    between atoms: _521  and  _523
REMARK  214  A    between atoms: _523  and  _524
REMARK  215  A    between atoms: _523  and  _526
REMARK  216  A    between atoms: _529  and  _531
REMARK  217  A    between atoms: _531  and  _532
REMARK  218  A    between atoms: _531  and  _534
REMARK  219  A    between atoms: _534  and  _535
REMARK  220  A    between atoms: _540  and  _542
REMARK  221  A    between atoms: _542  and  _543
REMARK  222  A    between atoms: _542  and  _545
REMARK  223  A    between atoms: _545  and  _546
REMARK  224  A    between atoms: _549  and  _551
REMARK  225  A    between atoms: _551  and  _552
REMARK  226  A    between atoms: _551  and  _554
REMARK  227  A    between atoms: _554  and  _555
REMARK  228  A    between atoms: _558  and  _560
REMARK  229  A    between atoms: _560  and  _561
REMARK  230  A    between atoms: _563  and  _565
REMARK  231  A    between atoms: _565  and  _566
REMARK  232  A    between atoms: _565  and  _568
REMARK  233  A    between atoms: _568  and  _569
REMARK  234  A    between atoms: _569  and  _570
REMARK  235  A    between atoms: _570  and  _571
REMARK  236  A    between atoms: _580  and  _582
REMARK  237  A    between atoms: _582  and  _583
REMARK  238  A    between atoms: _582  and  _585
REMARK  239  A    between atoms: _585  and  _586
REMARK                            x       y       z     vdW  Elec       q    Type
REMARK                         _______ _______ _______ _____ _____    ______ ____
ROOT
ATOM      1  O   HOH     1       6.929  14.675  20.497  0.00  0.00    +0.000 OA
ENDROOT
TORSDOF 0
REMARK  Name = ../refined-set-2016/2aod/2aod_pocket.pdb
REMARK  239 active torsions:
REMARK  status: ('A' for Active; 'I' for Inactive)
REMARK    1  A    between atoms: _1  and  _3
REMARK    2  A    between atoms: _3  and  _4
REMARK    3  A    between atoms: _3  and  _6
REMARK    4  A    between atoms: _6  and  _7
REMARK    5  A    between atoms: _7  and  _8
REMARK    6  A    between atoms: _8  and  _9
REMARK    7  A    between atoms: _18  and  _20
REMARK    8  A    between atoms: _20  and  _21
REMARK    9  A    between atoms: _20  and  _23
REMARK   10  A    between atoms: _23  and  _24
REMARK   11  A    between atoms: _27  and  _29
REMARK   12  A    between atoms: _29  and  _30
REMARK   13  A    between atoms: _29  and  _32
REMARK   14  A    between atoms: _32  and  _33
REMARK   15  A    between atoms: _33  and  _34
REMARK   16  A    between atoms: _37  and  _39
REMARK   17  A    between atoms: _39  and  _40
REMARK   18  A    between atoms: _39  and  _42
REMARK   19  A    between atoms: _42  and  _43
REMARK   20  A    between atoms: _46  and  _48
REMARK   21  A    between atoms: _48  and  _49
REMARK   22  A    between atoms: _48  and  _51
REMARK   23  A    between atoms: _51  and  _52
REMARK   24  A    between atoms: _55  and  _57
REMARK   25  A    between atoms: _57  and  _58
REMARK   26  A    between atoms: _57  and  _60
REMARK   27  A    between atoms: _60  and  _61
REMARK   28  A    between atoms: _64  and  _66
REMARK   29  A    between atoms: _66  and  _67
REMARK   30  A    between atoms: _69  and  _71
REMARK   31  A    between atoms: _71  and  _72
REMARK   32  A    between atoms: _75  and  _77
REMARK   33  A    between atoms: _77  and  _78
REMARK   34  A    between atoms: _77  and  _80
REMARK   35  A    between atoms: _80  and  _81
REMARK   36  A    between atoms: _84  and  _86
REMARK   37  A    between atoms: _86  and  _87
REMARK   38  A    between atoms: _86  and  _89
REMARK   39  A    between atoms: _89  and  _90
REMARK   40  A    between atoms: _93  and  _95
REMARK   41  A    between atoms: _95  and  _96
REMARK   42  A    between atoms: _95  and  _98
REMARK   43  A    between atoms: _98  and  _99
REMARK   44  A    between atoms: _102  and  _104
REMARK   45  A    between atoms: _104  and  _105
REMARK   46  A    between atoms: _104  and  _107
REMARK   47  A    between atoms: _110  and  _112
REMARK   48  A    between atoms: _112  and  _113
REMARK   49  A    between atoms: _112  and  _115
REMARK   50  A    between atoms: _115  and  _116
REMARK   51  A    between atoms: _116  and  _117
REMARK   52  A    between atoms: _117  and  _118
REMARK   53  A    between atoms: _118  and  _119
REMARK   54  A    between atoms: _123  and  _125
REMARK   55  A    between atoms: _125  and  _126
REMARK   56  A    between atoms: _125  and  _128
REMARK   57  A    between atoms: _128  and  _129
REMARK   58  A    between atoms: _129  and  _130
REMARK   59  A    between atoms: _132  and  _134
REMARK   60  A    between atoms: _134  and  _135
REMARK   61  A    between atoms: _134  and  _137
REMARK   62  A    between atoms: _137  and  _138
REMARK   63  A    between atoms: _141  and  _143
REMARK   64  A    between atoms: _143  and  _144
REMARK   65  A    between atoms: _146  and  _148
REMARK   66  A    between atoms: _148  and  _149
REMARK   67  A    between atoms: _151  and  _153
REMARK   68  A    between atoms: _153  and  _154
REMARK   69  A    between atoms: _153  and  _156
REMARK   70  A    between atoms: _156  and  _157
REMARK   71  A    between atoms: _160  and  _162
REMARK   72  A    between atoms: _162  and  _163
REMARK   73  A    between atoms: _165  and  _167
REMARK   74  A    between atoms: _167  and  _168
REMARK   75  A    between atoms: _170  and  _172
REMARK   76  A    between atoms: _172  and  _173
REMARK   77  A    between atoms: _172  and  _175
REMARK   78  A    between atoms: _175  and  _176
REMARK   79  A    between atoms: _182  and  _184
REMARK   80  A    between atoms: _184  and  _185
REMARK   81  A    between atoms: _184  and  _187
REMARK   82  A    between atoms: _187  and  _188
REMARK   83  A    between atoms: _191  and  _193
REMARK   84  A    between atoms: _193  and  _194
REMARK   85  A    between atoms: _193  and  _196
REMARK   86  A    between atoms: _199  and  _201
REMARK   87  A    between atoms: _201  and  _202
REMARK   88  A    between atoms: _201  and  _204
REMARK   89  A    between atoms: _204  and  _205
REMARK   90  A    between atoms: _209  and  _210
REMARK   91  A    between atoms: _215  and  _217
REMARK   92  A    between atoms: _217  and  _218
REMARK   93  A    between atoms: _217  and  _220
REMARK   94  A    between atoms: _220  and  _221
REMARK   95  A    between atoms: _225  and  _226
REMARK   96  A    between atoms: _231  and  _233
REMARK   97  A    between atoms: _233  and  _234
REMARK   98  A    between atoms: _233  and  _236
REMARK   99  A    between atoms: _239  and  _241
REMARK  100  A    between atoms: _241  and  _242
REMARK  101  A    between atoms: _241  and  _244
REMARK  102  A    between atoms: _244  and  _245
REMARK  103  A    between atoms: _250  and  _252
REMARK  104  A    between atoms: _252  and  _253
REMARK  105  A    between atoms: _252  and  _255
REMARK  106  A    between atoms: _255  and  _256
REMARK  107  A    between atoms: _259  and  _261
REMARK  108  A    between atoms: _261  and  _262
REMARK  109  A    between atoms: _261  and  _264
REMARK  110  A    between atoms: _264  and  _265
REMARK  111  A    between atoms: _268  and  _270
REMARK  112  A    between atoms: _270  and  _271
REMARK  113  A    between atoms: _273  and  _275
REMARK  114  A    between atoms: _275  and  _276
REMARK  115  A    between atoms: _275  and  _278
REMARK  116  A    between atoms: _278  and  _279
REMARK  117  A    between atoms: _279  and  _280
REMARK  118  A    between atoms: _280  and  _281
REMARK  119  A    between atoms: _290  and  _292
REMARK  120  A    between atoms: _292  and  _293
REMARK  121  A    between atoms: _292  and  _295
REMARK  122  A    between atoms: _295  and  _296
REMARK  123  A    between atoms: _301  and  _303
REMARK  124  A    between atoms: _303  and  _304
REMARK  125  A    between atoms: _303  and  _306
REMARK  126  A    between atoms: _306  and  _307
REMARK  127  A    between atoms: _307  and  _308
REMARK  128  A    between atoms: _308  and  _309
REMARK  129  A    between atoms: _318  and  _320
REMARK  130  A    between atoms: _320  and  _321
REMARK  131  A    between atoms: _320  and  _323
REMARK  132  A    between atoms: _323  and  _324
REMARK  133  A    between atoms: _327  and  _329
REMARK  134  A    between atoms: _329  and  _330
REMARK  135  A    between atoms: _329  and  _332
REMARK  136  A    between atoms: _332  and  _333
REMARK  137  A    between atoms: _336  and  _338
REMARK  138  A    between atoms: _338  and  _339
REMARK  139  A    between atoms: _338  and  _341
REMARK  140  A    between atoms: _341  and  _342
REMARK  141  A    between atoms: _345  and  _347
REMARK  142  A    between atoms: _347  and  _348
REMARK  143  A    between atoms: _347  and  _350
REMARK  144  A    between atoms: _350  and  _351
REMARK  145  A    between atoms: _354  and  _356
REMARK  146  A    between atoms: _356  and  _357
REMARK  147  A    between atoms: _359  and  _361
REMARK  148  A    between atoms: _361  and  _362
REMARK  149  A    between atoms: _365  and  _367
REMARK  150  A    between atoms: _367  and  _368
REMARK  151  A    between atoms: _367  and  _370
REMARK  152  A    between atoms: _370  and  _371
REMARK  153  A    between atoms: _374  and  _376
REMARK  154  A    between atoms: _376  and  _377
REMARK  155  A    between atoms: _376  and  _379
REMARK  156  A    between atoms: _379  and  _380
REMARK  157  A    between atoms: _383  and  _385
REMARK  158  A    between atoms: _385  and  _386
REMARK  159  A    between atoms: _385  and  _388
REMARK  160  A    between atoms: _388  and  _389
REMARK  161  A    between atoms: _392  and  _394
REMARK  162  A    between atoms: _394  and  _395
REMARK  163  A    between atoms: _394  and  _397
REMARK  164  A    between atoms: _400  and  _402
REMARK  165  A    between atoms: _402  and  _403
REMARK  166  A    between atoms: _402  and  _405
REMARK  167  A    between atoms: _405  and  _406
REMARK  168  A    between atoms: _406  and  _407
REMARK  169  A    between atoms: _407  and  _408
REMARK  170  A    between atoms: _408  and  _409
REMARK  171  A    between atoms: _413  and  _415
REMARK  172  A    between atoms: _415  and  _416
REMARK  173  A    between atoms: _415  and  _418
REMARK  174  A    between atoms: _418  and  _419
REMARK  175  A    between atoms: _419  and  _420
REMARK  176  A    between atoms: _422  and  _424
REMARK  177  A    between atoms: _424  and  _425
REMARK  178  A    between atoms: _424  and  _427
REMARK  179  A    between atoms: _427  and  _428
REMARK  180  A    between atoms: _431  and  _433
REMARK  181  A    between atoms: _433  and  _434
REMARK  182  A    between atoms: _436  and  _438
REMARK  183  A    between atoms: _438  and  _439
REMARK  184  A    between atoms: _441  and  _443
REMARK  185  A    between atoms: _443  and  _444
REMARK  186  A    between atoms: _443  and  _446
REMARK  187  A    between atoms: _446  and  _447
REMARK  188  A    between atoms: _450  and  _452
REMARK  189  A    between atoms: _452  and  _453
REMARK  190  A    between atoms: _455  and  _457
REMARK  191  A    between atoms: _457  and  _458
REMARK  192  A    between atoms: _460  and  _462
REMARK  193  A    between atoms: _462  and  _463
REMARK  194  A    between atoms: _462  and  _465
REMARK  195  A    between atoms: _465  and  _466
REMARK  196  A    between atoms: _472  and  _474
REMARK  197  A    between atoms: _474  and  _475
REMARK  198  A    between atoms: _474  and  _477
REMARK  199  A    between atoms: _477  and  _478
REMARK  200  A    between atoms: _481  and  _483
REMARK  201  A    between atoms: _483  and  _484
REMARK  202  A    between atoms: _483  and  _486
REMARK  203  A    between atoms: _489  and  _491
REMARK  204  A    between atoms: _491  and  _492
REMARK  205  A    between atoms: _491  and  _494
REMARK  206  A    between atoms: _494  and  _495
REMARK  207  A    between atoms: _499  and  _500
REMARK  208  A    between atoms: _505  and  _507
REMARK  209  A    between atoms: _507  and  _508
REMARK  210  A    between atoms: _507  and  _510
REMARK  211  A    between atoms: _510  and  _511
REMARK  212  A    between atoms: _515  and  _516
REMARK  213  A    between atoms: _521  and  _523
REMARK  214  A    between atoms: _523  and  _524
REMARK  215  A    between atoms: _523  and  _526
REMARK  216  A    between atoms: _529  and  _531
REMARK  217  A    between atoms: _531  and  _532
REMARK  218  A    between atoms: _531  and  _534
REMARK  219  A    between atoms: _534  and  _535
REMARK  220  A    between atoms: _540  and  _542
REMARK  221  A    between atoms: _542  and  _543
REMARK  222  A    between atoms: _542  and  _545
REMARK  223  A    between atoms: _545  and  _546
REMARK  224  A    between atoms: _549  and  _551
REMARK  225  A    between atoms: _551  and  _552
REMARK  226  A    between atoms: _551  and  _554
REMARK  227  A    between atoms: _554  and  _555
REMARK  228  A    between atoms: _558  and  _560
REMARK  229  A    between atoms: _560  and  _561
REMARK  230  A    between atoms: _563  and  _565
REMARK  231  A    between atoms: _565  and  _566
REMARK  232  A    between atoms: _565  and  _568
REMARK  233  A    between atoms: _568  and  _569
REMARK  234  A    between atoms: _569  and  _570
REMARK  235  A    between atoms: _570  and  _571
REMARK  236  A    between atoms: _580  and  _582
REMARK  237  A    between atoms: _582  and  _583
REMARK  238  A    between atoms: _582  and  _585
REMARK  239  A    between atoms: _585  and  _586
REMARK                            x       y       z     vdW  Elec       q    Type
REMARK                         _______ _______ _______ _____ _____    ______ ____
ROOT
ATOM      1  O   HOH     1       4.243  18.972  23.029  0.00  0.00    +0.000 OA
ENDROOT
TORSDOF 0
REMARK  Name = ../refined-set-2016/2aod/2aod_pocket.pdb
REMARK  239 active torsions:
REMARK  status: ('A' for Active; 'I' for Inactive)
REMARK    1  A    between atoms: _1  and  _3
REMARK    2  A    between atoms: _3  and  _4
REMARK    3  A    between atoms: _3  and  _6
REMARK    4  A    between atoms: _6  and  _7
REMARK    5  A    between atoms: _7  and  _8
REMARK    6  A    between atoms: _8  and  _9
REMARK    7  A    between atoms: _18  and  _20
REMARK    8  A    between atoms: _20  and  _21
REMARK    9  A    between atoms: _20  and  _23
REMARK   10  A    between atoms: _23  and  _24
REMARK   11  A    between atoms: _27  and  _29
REMARK   12  A    between atoms: _29  and  _30
REMARK   13  A    between atoms: _29  and  _32
REMARK   14  A    between atoms: _32  and  _33
REMARK   15  A    between atoms: _33  and  _34
REMARK   16  A    between atoms: _37  and  _39
REMARK   17  A    between atoms: _39  and  _40
REMARK   18  A    between atoms: _39  and  _42
REMARK   19  A    between atoms: _42  and  _43
REMARK   20  A    between atoms: _46  and  _48
REMARK   21  A    between atoms: _48  and  _49
REMARK   22  A    between atoms: _48  and  _51
REMARK   23  A    between atoms: _51  and  _52
REMARK   24  A    between atoms: _55  and  _57
REMARK   25  A    between atoms: _57  and  _58
REMARK   26  A    between atoms: _57  and  _60
REMARK   27  A    between atoms: _60  and  _61
REMARK   28  A    between atoms: _64  and  _66
REMARK   29  A    between atoms: _66  and  _67
REMARK   30  A    between atoms: _69  and  _71
REMARK   31  A    between atoms: _71  and  _72
REMARK   32  A    between atoms: _75  and  _77
REMARK   33  A    between atoms: _77  and  _78
REMARK   34  A    between atoms: _77  and  _80
REMARK   35  A    between atoms: _80  and  _81
REMARK   36  A    between atoms: _84  and  _86
REMARK   37  A    between atoms: _86  and  _87
REMARK   38  A    between atoms: _86  and  _89
REMARK   39  A    between atoms: _89  and  _90
REMARK   40  A    between atoms: _93  and  _95
REMARK   41  A    between atoms: _95  and  _96
REMARK   42  A    between atoms: _95  and  _98
REMARK   43  A    between atoms: _98  and  _99
REMARK   44  A    between atoms: _102  and  _104
REMARK   45  A    between atoms: _104  and  _105
REMARK   46  A    between atoms: _104  and  _107
REMARK   47  A    between atoms: _110  and  _112
REMARK   48  A    between atoms: _112  and  _113
REMARK   49  A    between atoms: _112  and  _115
REMARK   50  A    between atoms: _115  and  _116
REMARK   51  A    between atoms: _116  and  _117
REMARK   52  A    between atoms: _117  and  _118
REMARK   53  A    between atoms: _118  and  _119
REMARK   54  A    between atoms: _123  and  _125
REMARK   55  A    between atoms: _125  and  _126
REMARK   56  A    between atoms: _125  and  _128
REMARK   57  A    between atoms: _128  and  _129
REMARK   58  A    between atoms: _129  and  _130
REMARK   59  A    between atoms: _132  and  _134
REMARK   60  A    between atoms: _134  and  _135
REMARK   61  A    between atoms: _134  and  _137
REMARK   62  A    between atoms: _137  and  _138
REMARK   63  A    between atoms: _141  and  _143
REMARK   64  A    between atoms: _143  and  _144
REMARK   65  A    between atoms: _146  and  _148
REMARK   66  A    between atoms: _148  and  _149
REMARK   67  A    between atoms: _151  and  _153
REMARK   68  A    between atoms: _153  and  _154
REMARK   69  A    between atoms: _153  and  _156
REMARK   70  A    between atoms: _156  and  _157
REMARK   71  A    between atoms: _160  and  _162
REMARK   72  A    between atoms: _162  and  _163
REMARK   73  A    between atoms: _165  and  _167
REMARK   74  A    between atoms: _167  and  _168
REMARK   75  A    between atoms: _170  and  _172
REMARK   76  A    between atoms: _172  and  _173
REMARK   77  A    between atoms: _172  and  _175
REMARK   78  A    between atoms: _175  and  _176
REMARK   79  A    between atoms: _182  and  _184
REMARK   80  A    between atoms: _184  and  _185
REMARK   81  A    between atoms: _184  and  _187
REMARK   82  A    between atoms: _187  and  _188
REMARK   83  A    between atoms: _191  and  _193
REMARK   84  A    between atoms: _193  and  _194
REMARK   85  A    between atoms: _193  and  _196
REMARK   86  A    between atoms: _199  and  _201
REMARK   87  A    between atoms: _201  and  _202
REMARK   88  A    between atoms: _201  and  _204
REMARK   89  A    between atoms: _204  and  _205
REMARK   90  A    between atoms: _209  and  _210
REMARK   91  A    between atoms: _215  and  _217
REMARK   92  A    between atoms: _217  and  _218
REMARK   93  A    between atoms: _217  and  _220
REMARK   94  A    between atoms: _220  and  _221
REMARK   95  A    between atoms: _225  and  _226
REMARK   96  A    between atoms: _231  and  _233
REMARK   97  A    between atoms: _233  and  _234
REMARK   98  A    between atoms: _233  and  _236
REMARK   99  A    between atoms: _239  and  _241
REMARK  100  A    between atoms: _241  and  _242
REMARK  101  A    between atoms: _241  and  _244
REMARK  102  A    between atoms: _244  and  _245
REMARK  103  A    between atoms: _250  and  _252
REMARK  104  A    between atoms: _252  and  _253
REMARK  105  A    between atoms: _252  and  _255
REMARK  106  A    between atoms: _255  and  _256
REMARK  107  A    between atoms: _259  and  _261
REMARK  108  A    between atoms: _261  and  _262
REMARK  109  A    between atoms: _261  and  _264
REMARK  110  A    between atoms: _264  and  _265
REMARK  111  A    between atoms: _268  and  _270
REMARK  112  A    between atoms: _270  and  _271
REMARK  113  A    between atoms: _273  and  _275
REMARK  114  A    between atoms: _275  and  _276
REMARK  115  A    between atoms: _275  and  _278
REMARK  116  A    between atoms: _278  and  _279
REMARK  117  A    between atoms: _279  and  _280
REMARK  118  A    between atoms: _280  and  _281
REMARK  119  A    between atoms: _290  and  _292
REMARK  120  A    between atoms: _292  and  _293
REMARK  121  A    between atoms: _292  and  _295
REMARK  122  A    between atoms: _295  and  _296
REMARK  123  A    between atoms: _301  and  _303
REMARK  124  A    between atoms: _303  and  _304
REMARK  125  A    between atoms: _303  and  _306
REMARK  126  A    between atoms: _306  and  _307
REMARK  127  A    between atoms: _307  and  _308
REMARK  128  A    between atoms: _308  and  _309
REMARK  129  A    between atoms: _318  and  _320
REMARK  130  A    between atoms: _320  and  _321
REMARK  131  A    between atoms: _320  and  _323
REMARK  132  A    between atoms: _323  and  _324
REMARK  133  A    between atoms: _327  and  _329
REMARK  134  A    between atoms: _329  and  _330
REMARK  135  A    between atoms: _329  and  _332
REMARK  136  A    between atoms: _332  and  _333
REMARK  137  A    between atoms: _336  and  _338
REMARK  138  A    between atoms: _338  and  _339
REMARK  139  A    between atoms: _338  and  _341
REMARK  140  A    between atoms: _341  and  _342
REMARK  141  A    between atoms: _345  and  _347
REMARK  142  A    between atoms: _347  and  _348
REMARK  143  A    between atoms: _347  and  _350
REMARK  144  A    between atoms: _350  and  _351
REMARK  145  A    between atoms: _354  and  _356
REMARK  146  A    between atoms: _356  and  _357
REMARK  147  A    between atoms: _359  and  _361
REMARK  148  A    between atoms: _361  and  _362
REMARK  149  A    between atoms: _365  and  _367
REMARK  150  A    between atoms: _367  and  _368
REMARK  151  A    between atoms: _367  and  _370
REMARK  152  A    between atoms: _370  and  _371
REMARK  153  A    between atoms: _374  and  _376
REMARK  154  A    between atoms: _376  and  _377
REMARK  155  A    between atoms: _376  and  _379
REMARK  156  A    between atoms: _379  and  _380
REMARK  157  A    between atoms: _383  and  _385
REMARK  158  A    between atoms: _385  and  _386
REMARK  159  A    between atoms: _385  and  _388
REMARK  160  A    between atoms: _388  and  _389
REMARK  161  A    between atoms: _392  and  _394
REMARK  162  A    between atoms: _394  and  _395
REMARK  163  A    between atoms: _394  and  _397
REMARK  164  A    between atoms: _400  and  _402
REMARK  165  A    between atoms: _402  and  _403
REMARK  166  A    between atoms: _402  and  _405
REMARK  167  A    between atoms: _405  and  _406
REMARK  168  A    between atoms: _406  and  _407
REMARK  169  A    between atoms: _407  and  _408
REMARK  170  A    between atoms: _408  and  _409
REMARK  171  A    between atoms: _413  and  _415
REMARK  172  A    between atoms: _415  and  _416
REMARK  173  A    between atoms: _415  and  _418
REMARK  174  A    between atoms: _418  and  _419
REMARK  175  A    between atoms: _419  and  _420
REMARK  176  A    between atoms: _422  and  _424
REMARK  177  A    between atoms: _424  and  _425
REMARK  178  A    between atoms: _424  and  _427
REMARK  179  A    between atoms: _427  and  _428
REMARK  180  A    between atoms: _431  and  _433
REMARK  181  A    between atoms: _433  and  _434
REMARK  182  A    between atoms: _436  and  _438
REMARK  183  A    between atoms: _438  and  _439
REMARK  184  A    between atoms: _441  and  _443
REMARK  185  A    between atoms: _443  and  _444
REMARK  186  A    between atoms: _443  and  _446
REMARK  187  A    between atoms: _446  and  _447
REMARK  188  A    between atoms: _450  and  _452
REMARK  189  A    between atoms: _452  and  _453
REMARK  190  A    between atoms: _455  and  _457
REMARK  191  A    between atoms: _457  and  _458
REMARK  192  A    between atoms: _460  and  _462
REMARK  193  A    between atoms: _462  and  _463
REMARK  194  A    between atoms: _462  and  _465
REMARK  195  A    between atoms: _465  and  _466
REMARK  196  A    between atoms: _472  and  _474
REMARK  197  A    between atoms: _474  and  _475
REMARK  198  A    between atoms: _474  and  _477
REMARK  199  A    between atoms: _477  and  _478
REMARK  200  A    between atoms: _481  and  _483
REMARK  201  A    between atoms: _483  and  _484
REMARK  202  A    between atoms: _483  and  _486
REMARK  203  A    between atoms: _489  and  _491
REMARK  204  A    between atoms: _491  and  _492
REMARK  205  A    between atoms: _491  and  _494
REMARK  206  A    between atoms: _494  and  _495
REMARK  207  A    between atoms: _499  and  _500
REMARK  208  A    between atoms: _505  and  _507
REMARK  209  A    between atoms: _507  and  _508
REMARK  210  A    between atoms: _507  and  _510
REMARK  211  A    between atoms: _510  and  _511
REMARK  212  A    between atoms: _515  and  _516
REMARK  213  A    between atoms: _521  and  _523
REMARK  214  A    between atoms: _523  and  _524
REMARK  215  A    between atoms: _523  and  _526
REMARK  216  A    between atoms: _529  and  _531
REMARK  217  A    between atoms: _531  and  _532
REMARK  218  A    between atoms: _531  and  _534
REMARK  219  A    between atoms: _534  and  _535
REMARK  220  A    between atoms: _540  and  _542
REMARK  221  A    between atoms: _542  and  _543
REMARK  222  A    between atoms: _542  and  _545
REMARK  223  A    between atoms: _545  and  _546
REMARK  224  A    between atoms: _549  and  _551
REMARK  225  A    between atoms: _551  and  _552
REMARK  226  A    between atoms: _551  and  _554
REMARK  227  A    between atoms: _554  and  _555
REMARK  228  A    between atoms: _558  and  _560
REMARK  229  A    between atoms: _560  and  _561
REMARK  230  A    between atoms: _563  and  _565
REMARK  231  A    between atoms: _565  and  _566
REMARK  232  A    between atoms: _565  and  _568
REMARK  233  A    between atoms: _568  and  _569
REMARK  234  A    between atoms: _569  and  _570
REMARK  235  A    between atoms: _570  and  _571
REMARK  236  A    between atoms: _580  and  _582
REMARK  237  A    between atoms: _582  and  _583
REMARK  238  A    between atoms: _582  and  _585
REMARK  239  A    between atoms: _585  and  _586
REMARK                            x       y       z     vdW  Elec       q    Type
REMARK                         _______ _______ _______ _____ _____    ______ ____
ROOT
ATOM      1  O   HOH     1      18.981  17.066   9.261  0.00  0.00    +0.000 OA
ENDROOT
TORSDOF 0
REMARK  Name = ../refined-set-2016/2aod/2aod_pocket.pdb
REMARK  239 active torsions:
REMARK  status: ('A' for Active; 'I' for Inactive)
REMARK    1  A    between atoms: _1  and  _3
REMARK    2  A    between atoms: _3  and  _4
REMARK    3  A    between atoms: _3  and  _6
REMARK    4  A    between atoms: _6  and  _7
REMARK    5  A    between atoms: _7  and  _8
REMARK    6  A    between atoms: _8  and  _9
REMARK    7  A    between atoms: _18  and  _20
REMARK    8  A    between atoms: _20  and  _21
REMARK    9  A    between atoms: _20  and  _23
REMARK   10  A    between atoms: _23  and  _24
REMARK   11  A    between atoms: _27  and  _29
REMARK   12  A    between atoms: _29  and  _30
REMARK   13  A    between atoms: _29  and  _32
REMARK   14  A    between atoms: _32  and  _33
REMARK   15  A    between atoms: _33  and  _34
REMARK   16  A    between atoms: _37  and  _39
REMARK   17  A    between atoms: _39  and  _40
REMARK   18  A    between atoms: _39  and  _42
REMARK   19  A    between atoms: _42  and  _43
REMARK   20  A    between atoms: _46  and  _48
REMARK   21  A    between atoms: _48  and  _49
REMARK   22  A    between atoms: _48  and  _51
REMARK   23  A    between atoms: _51  and  _52
REMARK   24  A    between atoms: _55  and  _57
REMARK   25  A    between atoms: _57  and  _58
REMARK   26  A    between atoms: _57  and  _60
REMARK   27  A    between atoms: _60  and  _61
REMARK   28  A    between atoms: _64  and  _66
REMARK   29  A    between atoms: _66  and  _67
REMARK   30  A    between atoms: _69  and  _71
REMARK   31  A    between atoms: _71  and  _72
REMARK   32  A    between atoms: _75  and  _77
REMARK   33  A    between atoms: _77  and  _78
REMARK   34  A    between atoms: _77  and  _80
REMARK   35  A    between atoms: _80  and  _81
REMARK   36  A    between atoms: _84  and  _86
REMARK   37  A    between atoms: _86  and  _87
REMARK   38  A    between atoms: _86  and  _89
REMARK   39  A    between atoms: _89  and  _90
REMARK   40  A    between atoms: _93  and  _95
REMARK   41  A    between atoms: _95  and  _96
REMARK   42  A    between atoms: _95  and  _98
REMARK   43  A    between atoms: _98  and  _99
REMARK   44  A    between atoms: _102  and  _104
REMARK   45  A    between atoms: _104  and  _105
REMARK   46  A    between atoms: _104  and  _107
REMARK   47  A    between atoms: _110  and  _112
REMARK   48  A    between atoms: _112  and  _113
REMARK   49  A    between atoms: _112  and  _115
REMARK   50  A    between atoms: _115  and  _116
REMARK   51  A    between atoms: _116  and  _117
REMARK   52  A    between atoms: _117  and  _118
REMARK   53  A    between atoms: _118  and  _119
REMARK   54  A    between atoms: _123  and  _125
REMARK   55  A    between atoms: _125  and  _126
REMARK   56  A    between atoms: _125  and  _128
REMARK   57  A    between atoms: _128  and  _129
REMARK   58  A    between atoms: _129  and  _130
REMARK   59  A    between atoms: _132  and  _134
REMARK   60  A    between atoms: _134  and  _135
REMARK   61  A    between atoms: _134  and  _137
REMARK   62  A    between atoms: _137  and  _138
REMARK   63  A    between atoms: _141  and  _143
REMARK   64  A    between atoms: _143  and  _144
REMARK   65  A    between atoms: _146  and  _148
REMARK   66  A    between atoms: _148  and  _149
REMARK   67  A    between atoms: _151  and  _153
REMARK   68  A    between atoms: _153  and  _154
REMARK   69  A    between atoms: _153  and  _156
REMARK   70  A    between atoms: _156  and  _157
REMARK   71  A    between atoms: _160  and  _162
REMARK   72  A    between atoms: _162  and  _163
REMARK   73  A    between atoms: _165  and  _167
REMARK   74  A    between atoms: _167  and  _168
REMARK   75  A    between atoms: _170  and  _172
REMARK   76  A    between atoms: _172  and  _173
REMARK   77  A    between atoms: _172  and  _175
REMARK   78  A    between atoms: _175  and  _176
REMARK   79  A    between atoms: _182  and  _184
REMARK   80  A    between atoms: _184  and  _185
REMARK   81  A    between atoms: _184  and  _187
REMARK   82  A    between atoms: _187  and  _188
REMARK   83  A    between atoms: _191  and  _193
REMARK   84  A    between atoms: _193  and  _194
REMARK   85  A    between atoms: _193  and  _196
REMARK   86  A    between atoms: _199  and  _201
REMARK   87  A    between atoms: _201  and  _202
REMARK   88  A    between atoms: _201  and  _204
REMARK   89  A    between atoms: _204  and  _205
REMARK   90  A    between atoms: _209  and  _210
REMARK   91  A    between atoms: _215  and  _217
REMARK   92  A    between atoms: _217  and  _218
REMARK   93  A    between atoms: _217  and  _220
REMARK   94  A    between atoms: _220  and  _221
REMARK   95  A    between atoms: _225  and  _226
REMARK   96  A    between atoms: _231  and  _233
REMARK   97  A    between atoms: _233  and  _234
REMARK   98  A    between atoms: _233  and  _236
REMARK   99  A    between atoms: _239  and  _241
REMARK  100  A    between atoms: _241  and  _242
REMARK  101  A    between atoms: _241  and  _244
REMARK  102  A    between atoms: _244  and  _245
REMARK  103  A    between atoms: _250  and  _252
REMARK  104  A    between atoms: _252  and  _253
REMARK  105  A    between atoms: _252  and  _255
REMARK  106  A    between atoms: _255  and  _256
REMARK  107  A    between atoms: _259  and  _261
REMARK  108  A    between atoms: _261  and  _262
REMARK  109  A    between atoms: _261  and  _264
REMARK  110  A    between atoms: _264  and  _265
REMARK  111  A    between atoms: _268  and  _270
REMARK  112  A    between atoms: _270  and  _271
REMARK  113  A    between atoms: _273  and  _275
REMARK  114  A    between atoms: _275  and  _276
REMARK  115  A    between atoms: _275  and  _278
REMARK  116  A    between atoms: _278  and  _279
REMARK  117  A    between atoms: _279  and  _280
REMARK  118  A    between atoms: _280  and  _281
REMARK  119  A    between atoms: _290  and  _292
REMARK  120  A    between atoms: _292  and  _293
REMARK  121  A    between atoms: _292  and  _295
REMARK  122  A    between atoms: _295  and  _296
REMARK  123  A    between atoms: _301  and  _303
REMARK  124  A    between atoms: _303  and  _304
REMARK  125  A    between atoms: _303  and  _306
REMARK  126  A    between atoms: _306  and  _307
REMARK  127  A    between atoms: _307  and  _308
REMARK  128  A    between atoms: _308  and  _309
REMARK  129  A    between atoms: _318  and  _320
REMARK  130  A    between atoms: _320  and  _321
REMARK  131  A    between atoms: _320  and  _323
REMARK  132  A    between atoms: _323  and  _324
REMARK  133  A    between atoms: _327  and  _329
REMARK  134  A    between atoms: _329  and  _330
REMARK  135  A    between atoms: _329  and  _332
REMARK  136  A    between atoms: _332  and  _333
REMARK  137  A    between atoms: _336  and  _338
REMARK  138  A    between atoms: _338  and  _339
REMARK  139  A    between atoms: _338  and  _341
REMARK  140  A    between atoms: _341  and  _342
REMARK  141  A    between atoms: _345  and  _347
REMARK  142  A    between atoms: _347  and  _348
REMARK  143  A    between atoms: _347  and  _350
REMARK  144  A    between atoms: _350  and  _351
REMARK  145  A    between atoms: _354  and  _356
REMARK  146  A    between atoms: _356  and  _357
REMARK  147  A    between atoms: _359  and  _361
REMARK  148  A    between atoms: _361  and  _362
REMARK  149  A    between atoms: _365  and  _367
REMARK  150  A    between atoms: _367  and  _368
REMARK  151  A    between atoms: _367  and  _370
REMARK  152  A    between atoms: _370  and  _371
REMARK  153  A    between atoms: _374  and  _376
REMARK  154  A    between atoms: _376  and  _377
REMARK  155  A    between atoms: _376  and  _379
REMARK  156  A    between atoms: _379  and  _380
REMARK  157  A    between atoms: _383  and  _385
REMARK  158  A    between atoms: _385  and  _386
REMARK  159  A    between atoms: _385  and  _388
REMARK  160  A    between atoms: _388  and  _389
REMARK  161  A    between atoms: _392  and  _394
REMARK  162  A    between atoms: _394  and  _395
REMARK  163  A    between atoms: _394  and  _397
REMARK  164  A    between atoms: _400  and  _402
REMARK  165  A    between atoms: _402  and  _403
REMARK  166  A    between atoms: _402  and  _405
REMARK  167  A    between atoms: _405  and  _406
REMARK  168  A    between atoms: _406  and  _407
REMARK  169  A    between atoms: _407  and  _408
REMARK  170  A    between atoms: _408  and  _409
REMARK  171  A    between atoms: _413  and  _415
REMARK  172  A    between atoms: _415  and  _416
REMARK  173  A    between atoms: _415  and  _418
REMARK  174  A    between atoms: _418  and  _419
REMARK  175  A    between atoms: _419  and  _420
REMARK  176  A    between atoms: _422  and  _424
REMARK  177  A    between atoms: _424  and  _425
REMARK  178  A    between atoms: _424  and  _427
REMARK  179  A    between atoms: _427  and  _428
REMARK  180  A    between atoms: _431  and  _433
REMARK  181  A    between atoms: _433  and  _434
REMARK  182  A    between atoms: _436  and  _438
REMARK  183  A    between atoms: _438  and  _439
REMARK  184  A    between atoms: _441  and  _443
REMARK  185  A    between atoms: _443  and  _444
REMARK  186  A    between atoms: _443  and  _446
REMARK  187  A    between atoms: _446  and  _447
REMARK  188  A    between atoms: _450  and  _452
REMARK  189  A    between atoms: _452  and  _453
REMARK  190  A    between atoms: _455  and  _457
REMARK  191  A    between atoms: _457  and  _458
REMARK  192  A    between atoms: _460  and  _462
REMARK  193  A    between atoms: _462  and  _463
REMARK  194  A    between atoms: _462  and  _465
REMARK  195  A    between atoms: _465  and  _466
REMARK  196  A    between atoms: _472  and  _474
REMARK  197  A    between atoms: _474  and  _475
REMARK  198  A    between atoms: _474  and  _477
REMARK  199  A    between atoms: _477  and  _478
REMARK  200  A    between atoms: _481  and  _483
REMARK  201  A    between atoms: _483  and  _484
REMARK  202  A    between atoms: _483  and  _486
REMARK  203  A    between atoms: _489  and  _491
REMARK  204  A    between atoms: _491  and  _492
REMARK  205  A    between atoms: _491  and  _494
REMARK  206  A    between atoms: _494  and  _495
REMARK  207  A    between atoms: _499  and  _500
REMARK  208  A    between atoms: _505  and  _507
REMARK  209  A    between atoms: _507  and  _508
REMARK  210  A    between atoms: _507  and  _510
REMARK  211  A    between atoms: _510  and  _511
REMARK  212  A    between atoms: _515  and  _516
REMARK  213  A    between atoms: _521  and  _523
REMARK  214  A    between atoms: _523  and  _524
REMARK  215  A    between atoms: _523  and  _526
REMARK  216  A    between atoms: _529  and  _531
REMARK  217  A    between atoms: _531  and  _532
REMARK  218  A    between atoms: _531  and  _534
REMARK  219  A    between atoms: _534  and  _535
REMARK  220  A    between atoms: _540  and  _542
REMARK  221  A    between atoms: _542  and  _543
REMARK  222  A    between atoms: _542  and  _545
REMARK  223  A    between atoms: _545  and  _546
REMARK  224  A    between atoms: _549  and  _551
REMARK  225  A    between atoms: _551  and  _552
REMARK  226  A    between atoms: _551  and  _554
REMARK  227  A    between atoms: _554  and  _555
REMARK  228  A    between atoms: _558  and  _560
REMARK  229  A    between atoms: _560  and  _561
REMARK  230  A    between atoms: _563  and  _565
REMARK  231  A    between atoms: _565  and  _566
REMARK  232  A    between atoms: _565  and  _568
REMARK  233  A    between atoms: _568  and  _569
REMARK  234  A    between atoms: _569  and  _570
REMARK  235  A    between atoms: _570  and  _571
REMARK  236  A    between atoms: _580  and  _582
REMARK  237  A    between atoms: _582  and  _583
REMARK  238  A    between atoms: _582  and  _585
REMARK  239  A    between atoms: _585  and  _586
REMARK                            x       y       z     vdW  Elec       q    Type
REMARK                         _______ _______ _______ _____ _____    ______ ____
ROOT
ATOM      1  O   HOH     1       7.184  22.515  11.989  0.00  0.00    +0.000 OA
ENDROOT
TORSDOF 0
REMARK  Name = ../refined-set-2016/2aod/2aod_pocket.pdb
REMARK  239 active torsions:
REMARK  status: ('A' for Active; 'I' for Inactive)
REMARK    1  A    between atoms: _1  and  _3
REMARK    2  A    between atoms: _3  and  _4
REMARK    3  A    between atoms: _3  and  _6
REMARK    4  A    between atoms: _6  and  _7
REMARK    5  A    between atoms: _7  and  _8
REMARK    6  A    between atoms: _8  and  _9
REMARK    7  A    between atoms: _18  and  _20
REMARK    8  A    between atoms: _20  and  _21
REMARK    9  A    between atoms: _20  and  _23
REMARK   10  A    between atoms: _23  and  _24
REMARK   11  A    between atoms: _27  and  _29
REMARK   12  A    between atoms: _29  and  _30
REMARK   13  A    between atoms: _29  and  _32
REMARK   14  A    between atoms: _32  and  _33
REMARK   15  A    between atoms: _33  and  _34
REMARK   16  A    between atoms: _37  and  _39
REMARK   17  A    between atoms: _39  and  _40
REMARK   18  A    between atoms: _39  and  _42
REMARK   19  A    between atoms: _42  and  _43
REMARK   20  A    between atoms: _46  and  _48
REMARK   21  A    between atoms: _48  and  _49
REMARK   22  A    between atoms: _48  and  _51
REMARK   23  A    between atoms: _51  and  _52
REMARK   24  A    between atoms: _55  and  _57
REMARK   25  A    between atoms: _57  and  _58
REMARK   26  A    between atoms: _57  and  _60
REMARK   27  A    between atoms: _60  and  _61
REMARK   28  A    between atoms: _64  and  _66
REMARK   29  A    between atoms: _66  and  _67
REMARK   30  A    between atoms: _69  and  _71
REMARK   31  A    between atoms: _71  and  _72
REMARK   32  A    between atoms: _75  and  _77
REMARK   33  A    between atoms: _77  and  _78
REMARK   34  A    between atoms: _77  and  _80
REMARK   35  A    between atoms: _80  and  _81
REMARK   36  A    between atoms: _84  and  _86
REMARK   37  A    between atoms: _86  and  _87
REMARK   38  A    between atoms: _86  and  _89
REMARK   39  A    between atoms: _89  and  _90
REMARK   40  A    between atoms: _93  and  _95
REMARK   41  A    between atoms: _95  and  _96
REMARK   42  A    between atoms: _95  and  _98
REMARK   43  A    between atoms: _98  and  _99
REMARK   44  A    between atoms: _102  and  _104
REMARK   45  A    between atoms: _104  and  _105
REMARK   46  A    between atoms: _104  and  _107
REMARK   47  A    between atoms: _110  and  _112
REMARK   48  A    between atoms: _112  and  _113
REMARK   49  A    between atoms: _112  and  _115
REMARK   50  A    between atoms: _115  and  _116
REMARK   51  A    between atoms: _116  and  _117
REMARK   52  A    between atoms: _117  and  _118
REMARK   53  A    between atoms: _118  and  _119
REMARK   54  A    between atoms: _123  and  _125
REMARK   55  A    between atoms: _125  and  _126
REMARK   56  A    between atoms: _125  and  _128
REMARK   57  A    between atoms: _128  and  _129
REMARK   58  A    between atoms: _129  and  _130
REMARK   59  A    between atoms: _132  and  _134
REMARK   60  A    between atoms: _134  and  _135
REMARK   61  A    between atoms: _134  and  _137
REMARK   62  A    between atoms: _137  and  _138
REMARK   63  A    between atoms: _141  and  _143
REMARK   64  A    between atoms: _143  and  _144
REMARK   65  A    between atoms: _146  and  _148
REMARK   66  A    between atoms: _148  and  _149
REMARK   67  A    between atoms: _151  and  _153
REMARK   68  A    between atoms: _153  and  _154
REMARK   69  A    between atoms: _153  and  _156
REMARK   70  A    between atoms: _156  and  _157
REMARK   71  A    between atoms: _160  and  _162
REMARK   72  A    between atoms: _162  and  _163
REMARK   73  A    between atoms: _165  and  _167
REMARK   74  A    between atoms: _167  and  _168
REMARK   75  A    between atoms: _170  and  _172
REMARK   76  A    between atoms: _172  and  _173
REMARK   77  A    between atoms: _172  and  _175
REMARK   78  A    between atoms: _175  and  _176
REMARK   79  A    between atoms: _182  and  _184
REMARK   80  A    between atoms: _184  and  _185
REMARK   81  A    between atoms: _184  and  _187
REMARK   82  A    between atoms: _187  and  _188
REMARK   83  A    between atoms: _191  and  _193
REMARK   84  A    between atoms: _193  and  _194
REMARK   85  A    between atoms: _193  and  _196
REMARK   86  A    between atoms: _199  and  _201
REMARK   87  A    between atoms: _201  and  _202
REMARK   88  A    between atoms: _201  and  _204
REMARK   89  A    between atoms: _204  and  _205
REMARK   90  A    between atoms: _209  and  _210
REMARK   91  A    between atoms: _215  and  _217
REMARK   92  A    between atoms: _217  and  _218
REMARK   93  A    between atoms: _217  and  _220
REMARK   94  A    between atoms: _220  and  _221
REMARK   95  A    between atoms: _225  and  _226
REMARK   96  A    between atoms: _231  and  _233
REMARK   97  A    between atoms: _233  and  _234
REMARK   98  A    between atoms: _233  and  _236
REMARK   99  A    between atoms: _239  and  _241
REMARK  100  A    between atoms: _241  and  _242
REMARK  101  A    between atoms: _241  and  _244
REMARK  102  A    between atoms: _244  and  _245
REMARK  103  A    between atoms: _250  and  _252
REMARK  104  A    between atoms: _252  and  _253
REMARK  105  A    between atoms: _252  and  _255
REMARK  106  A    between atoms: _255  and  _256
REMARK  107  A    between atoms: _259  and  _261
REMARK  108  A    between atoms: _261  and  _262
REMARK  109  A    between atoms: _261  and  _264
REMARK  110  A    between atoms: _264  and  _265
REMARK  111  A    between atoms: _268  and  _270
REMARK  112  A    between atoms: _270  and  _271
REMARK  113  A    between atoms: _273  and  _275
REMARK  114  A    between atoms: _275  and  _276
REMARK  115  A    between atoms: _275  and  _278
REMARK  116  A    between atoms: _278  and  _279
REMARK  117  A    between atoms: _279  and  _280
REMARK  118  A    between atoms: _280  and  _281
REMARK  119  A    between atoms: _290  and  _292
REMARK  120  A    between atoms: _292  and  _293
REMARK  121  A    between atoms: _292  and  _295
REMARK  122  A    between atoms: _295  and  _296
REMARK  123  A    between atoms: _301  and  _303
REMARK  124  A    between atoms: _303  and  _304
REMARK  125  A    between atoms: _303  and  _306
REMARK  126  A    between atoms: _306  and  _307
REMARK  127  A    between atoms: _307  and  _308
REMARK  128  A    between atoms: _308  and  _309
REMARK  129  A    between atoms: _318  and  _320
REMARK  130  A    between atoms: _320  and  _321
REMARK  131  A    between atoms: _320  and  _323
REMARK  132  A    between atoms: _323  and  _324
REMARK  133  A    between atoms: _327  and  _329
REMARK  134  A    between atoms: _329  and  _330
REMARK  135  A    between atoms: _329  and  _332
REMARK  136  A    between atoms: _332  and  _333
REMARK  137  A    between atoms: _336  and  _338
REMARK  138  A    between atoms: _338  and  _339
REMARK  139  A    between atoms: _338  and  _341
REMARK  140  A    between atoms: _341  and  _342
REMARK  141  A    between atoms: _345  and  _347
REMARK  142  A    between atoms: _347  and  _348
REMARK  143  A    between atoms: _347  and  _350
REMARK  144  A    between atoms: _350  and  _351
REMARK  145  A    between atoms: _354  and  _356
REMARK  146  A    between atoms: _356  and  _357
REMARK  147  A    between atoms: _359  and  _361
REMARK  148  A    between atoms: _361  and  _362
REMARK  149  A    between atoms: _365  and  _367
REMARK  150  A    between atoms: _367  and  _368
REMARK  151  A    between atoms: _367  and  _370
REMARK  152  A    between atoms: _370  and  _371
REMARK  153  A    between atoms: _374  and  _376
REMARK  154  A    between atoms: _376  and  _377
REMARK  155  A    between atoms: _376  and  _379
REMARK  156  A    between atoms: _379  and  _380
REMARK  157  A    between atoms: _383  and  _385
REMARK  158  A    between atoms: _385  and  _386
REMARK  159  A    between atoms: _385  and  _388
REMARK  160  A    between atoms: _388  and  _389
REMARK  161  A    between atoms: _392  and  _394
REMARK  162  A    between atoms: _394  and  _395
REMARK  163  A    between atoms: _394  and  _397
REMARK  164  A    between atoms: _400  and  _402
REMARK  165  A    between atoms: _402  and  _403
REMARK  166  A    between atoms: _402  and  _405
REMARK  167  A    between atoms: _405  and  _406
REMARK  168  A    between atoms: _406  and  _407
REMARK  169  A    between atoms: _407  and  _408
REMARK  170  A    between atoms: _408  and  _409
REMARK  171  A    between atoms: _413  and  _415
REMARK  172  A    between atoms: _415  and  _416
REMARK  173  A    between atoms: _415  and  _418
REMARK  174  A    between atoms: _418  and  _419
REMARK  175  A    between atoms: _419  and  _420
REMARK  176  A    between atoms: _422  and  _424
REMARK  177  A    between atoms: _424  and  _425
REMARK  178  A    between atoms: _424  and  _427
REMARK  179  A    between atoms: _427  and  _428
REMARK  180  A    between atoms: _431  and  _433
REMARK  181  A    between atoms: _433  and  _434
REMARK  182  A    between atoms: _436  and  _438
REMARK  183  A    between atoms: _438  and  _439
REMARK  184  A    between atoms: _441  and  _443
REMARK  185  A    between atoms: _443  and  _444
REMARK  186  A    between atoms: _443  and  _446
REMARK  187  A    between atoms: _446  and  _447
REMARK  188  A    between atoms: _450  and  _452
REMARK  189  A    between atoms: _452  and  _453
REMARK  190  A    between atoms: _455  and  _457
REMARK  191  A    between atoms: _457  and  _458
REMARK  192  A    between atoms: _460  and  _462
REMARK  193  A    between atoms: _462  and  _463
REMARK  194  A    between atoms: _462  and  _465
REMARK  195  A    between atoms: _465  and  _466
REMARK  196  A    between atoms: _472  and  _474
REMARK  197  A    between atoms: _474  and  _475
REMARK  198  A    between atoms: _474  and  _477
REMARK  199  A    between atoms: _477  and  _478
REMARK  200  A    between atoms: _481  and  _483
REMARK  201  A    between atoms: _483  and  _484
REMARK  202  A    between atoms: _483  and  _486
REMARK  203  A    between atoms: _489  and  _491
REMARK  204  A    between atoms: _491  and  _492
REMARK  205  A    between atoms: _491  and  _494
REMARK  206  A    between atoms: _494  and  _495
REMARK  207  A    between atoms: _499  and  _500
REMARK  208  A    between atoms: _505  and  _507
REMARK  209  A    between atoms: _507  and  _508
REMARK  210  A    between atoms: _507  and  _510
REMARK  211  A    between atoms: _510  and  _511
REMARK  212  A    between atoms: _515  and  _516
REMARK  213  A    between atoms: _521  and  _523
REMARK  214  A    between atoms: _523  and  _524
REMARK  215  A    between atoms: _523  and  _526
REMARK  216  A    between atoms: _529  and  _531
REMARK  217  A    between atoms: _531  and  _532
REMARK  218  A    between atoms: _531  and  _534
REMARK  219  A    between atoms: _534  and  _535
REMARK  220  A    between atoms: _540  and  _542
REMARK  221  A    between atoms: _542  and  _543
REMARK  222  A    between atoms: _542  and  _545
REMARK  223  A    between atoms: _545  and  _546
REMARK  224  A    between atoms: _549  and  _551
REMARK  225  A    between atoms: _551  and  _552
REMARK  226  A    between atoms: _551  and  _554
REMARK  227  A    between atoms: _554  and  _555
REMARK  228  A    between atoms: _558  and  _560
REMARK  229  A    between atoms: _560  and  _561
REMARK  230  A    between atoms: _563  and  _565
REMARK  231  A    between atoms: _565  and  _566
REMARK  232  A    between atoms: _565  and  _568
REMARK  233  A    between atoms: _568  and  _569
REMARK  234  A    between atoms: _569  and  _570
REMARK  235  A    between atoms: _570  and  _571
REMARK  236  A    between atoms: _580  and  _582
REMARK  237  A    between atoms: _582  and  _583
REMARK  238  A    between atoms: _582  and  _585
REMARK  239  A    between atoms: _585  and  _586
REMARK                            x       y       z     vdW  Elec       q    Type
REMARK                         _______ _______ _______ _____ _____    ______ ____
ROOT
ATOM      1  O   HOH     1      12.595  15.740  12.116  0.00  0.00    +0.000 OA
ENDROOT
TORSDOF 0
REMARK  Name = ../refined-set-2016/2aod/2aod_pocket.pdb
REMARK  239 active torsions:
REMARK  status: ('A' for Active; 'I' for Inactive)
REMARK    1  A    between atoms: _1  and  _3
REMARK    2  A    between atoms: _3  and  _4
REMARK    3  A    between atoms: _3  and  _6
REMARK    4  A    between atoms: _6  and  _7
REMARK    5  A    between atoms: _7  and  _8
REMARK    6  A    between atoms: _8  and  _9
REMARK    7  A    between atoms: _18  and  _20
REMARK    8  A    between atoms: _20  and  _21
REMARK    9  A    between atoms: _20  and  _23
REMARK   10  A    between atoms: _23  and  _24
REMARK   11  A    between atoms: _27  and  _29
REMARK   12  A    between atoms: _29  and  _30
REMARK   13  A    between atoms: _29  and  _32
REMARK   14  A    between atoms: _32  and  _33
REMARK   15  A    between atoms: _33  and  _34
REMARK   16  A    between atoms: _37  and  _39
REMARK   17  A    between atoms: _39  and  _40
REMARK   18  A    between atoms: _39  and  _42
REMARK   19  A    between atoms: _42  and  _43
REMARK   20  A    between atoms: _46  and  _48
REMARK   21  A    between atoms: _48  and  _49
REMARK   22  A    between atoms: _48  and  _51
REMARK   23  A    between atoms: _51  and  _52
REMARK   24  A    between atoms: _55  and  _57
REMARK   25  A    between atoms: _57  and  _58
REMARK   26  A    between atoms: _57  and  _60
REMARK   27  A    between atoms: _60  and  _61
REMARK   28  A    between atoms: _64  and  _66
REMARK   29  A    between atoms: _66  and  _67
REMARK   30  A    between atoms: _69  and  _71
REMARK   31  A    between atoms: _71  and  _72
REMARK   32  A    between atoms: _75  and  _77
REMARK   33  A    between atoms: _77  and  _78
REMARK   34  A    between atoms: _77  and  _80
REMARK   35  A    between atoms: _80  and  _81
REMARK   36  A    between atoms: _84  and  _86
REMARK   37  A    between atoms: _86  and  _87
REMARK   38  A    between atoms: _86  and  _89
REMARK   39  A    between atoms: _89  and  _90
REMARK   40  A    between atoms: _93  and  _95
REMARK   41  A    between atoms: _95  and  _96
REMARK   42  A    between atoms: _95  and  _98
REMARK   43  A    between atoms: _98  and  _99
REMARK   44  A    between atoms: _102  and  _104
REMARK   45  A    between atoms: _104  and  _105
REMARK   46  A    between atoms: _104  and  _107
REMARK   47  A    between atoms: _110  and  _112
REMARK   48  A    between atoms: _112  and  _113
REMARK   49  A    between atoms: _112  and  _115
REMARK   50  A    between atoms: _115  and  _116
REMARK   51  A    between atoms: _116  and  _117
REMARK   52  A    between atoms: _117  and  _118
REMARK   53  A    between atoms: _118  and  _119
REMARK   54  A    between atoms: _123  and  _125
REMARK   55  A    between atoms: _125  and  _126
REMARK   56  A    between atoms: _125  and  _128
REMARK   57  A    between atoms: _128  and  _129
REMARK   58  A    between atoms: _129  and  _130
REMARK   59  A    between atoms: _132  and  _134
REMARK   60  A    between atoms: _134  and  _135
REMARK   61  A    between atoms: _134  and  _137
REMARK   62  A    between atoms: _137  and  _138
REMARK   63  A    between atoms: _141  and  _143
REMARK   64  A    between atoms: _143  and  _144
REMARK   65  A    between atoms: _146  and  _148
REMARK   66  A    between atoms: _148  and  _149
REMARK   67  A    between atoms: _151  and  _153
REMARK   68  A    between atoms: _153  and  _154
REMARK   69  A    between atoms: _153  and  _156
REMARK   70  A    between atoms: _156  and  _157
REMARK   71  A    between atoms: _160  and  _162
REMARK   72  A    between atoms: _162  and  _163
REMARK   73  A    between atoms: _165  and  _167
REMARK   74  A    between atoms: _167  and  _168
REMARK   75  A    between atoms: _170  and  _172
REMARK   76  A    between atoms: _172  and  _173
REMARK   77  A    between atoms: _172  and  _175
REMARK   78  A    between atoms: _175  and  _176
REMARK   79  A    between atoms: _182  and  _184
REMARK   80  A    between atoms: _184  and  _185
REMARK   81  A    between atoms: _184  and  _187
REMARK   82  A    between atoms: _187  and  _188
REMARK   83  A    between atoms: _191  and  _193
REMARK   84  A    between atoms: _193  and  _194
REMARK   85  A    between atoms: _193  and  _196
REMARK   86  A    between atoms: _199  and  _201
REMARK   87  A    between atoms: _201  and  _202
REMARK   88  A    between atoms: _201  and  _204
REMARK   89  A    between atoms: _204  and  _205
REMARK   90  A    between atoms: _209  and  _210
REMARK   91  A    between atoms: _215  and  _217
REMARK   92  A    between atoms: _217  and  _218
REMARK   93  A    between atoms: _217  and  _220
REMARK   94  A    between atoms: _220  and  _221
REMARK   95  A    between atoms: _225  and  _226
REMARK   96  A    between atoms: _231  and  _233
REMARK   97  A    between atoms: _233  and  _234
REMARK   98  A    between atoms: _233  and  _236
REMARK   99  A    between atoms: _239  and  _241
REMARK  100  A    between atoms: _241  and  _242
REMARK  101  A    between atoms: _241  and  _244
REMARK  102  A    between atoms: _244  and  _245
REMARK  103  A    between atoms: _250  and  _252
REMARK  104  A    between atoms: _252  and  _253
REMARK  105  A    between atoms: _252  and  _255
REMARK  106  A    between atoms: _255  and  _256
REMARK  107  A    between atoms: _259  and  _261
REMARK  108  A    between atoms: _261  and  _262
REMARK  109  A    between atoms: _261  and  _264
REMARK  110  A    between atoms: _264  and  _265
REMARK  111  A    between atoms: _268  and  _270
REMARK  112  A    between atoms: _270  and  _271
REMARK  113  A    between atoms: _273  and  _275
REMARK  114  A    between atoms: _275  and  _276
REMARK  115  A    between atoms: _275  and  _278
REMARK  116  A    between atoms: _278  and  _279
REMARK  117  A    between atoms: _279  and  _280
REMARK  118  A    between atoms: _280  and  _281
REMARK  119  A    between atoms: _290  and  _292
REMARK  120  A    between atoms: _292  and  _293
REMARK  121  A    between atoms: _292  and  _295
REMARK  122  A    between atoms: _295  and  _296
REMARK  123  A    between atoms: _301  and  _303
REMARK  124  A    between atoms: _303  and  _304
REMARK  125  A    between atoms: _303  and  _306
REMARK  126  A    between atoms: _306  and  _307
REMARK  127  A    between atoms: _307  and  _308
REMARK  128  A    between atoms: _308  and  _309
REMARK  129  A    between atoms: _318  and  _320
REMARK  130  A    between atoms: _320  and  _321
REMARK  131  A    between atoms: _320  and  _323
REMARK  132  A    between atoms: _323  and  _324
REMARK  133  A    between atoms: _327  and  _329
REMARK  134  A    between atoms: _329  and  _330
REMARK  135  A    between atoms: _329  and  _332
REMARK  136  A    between atoms: _332  and  _333
REMARK  137  A    between atoms: _336  and  _338
REMARK  138  A    between atoms: _338  and  _339
REMARK  139  A    between atoms: _338  and  _341
REMARK  140  A    between atoms: _341  and  _342
REMARK  141  A    between atoms: _345  and  _347
REMARK  142  A    between atoms: _347  and  _348
REMARK  143  A    between atoms: _347  and  _350
REMARK  144  A    between atoms: _350  and  _351
REMARK  145  A    between atoms: _354  and  _356
REMARK  146  A    between atoms: _356  and  _357
REMARK  147  A    between atoms: _359  and  _361
REMARK  148  A    between atoms: _361  and  _362
REMARK  149  A    between atoms: _365  and  _367
REMARK  150  A    between atoms: _367  and  _368
REMARK  151  A    between atoms: _367  and  _370
REMARK  152  A    between atoms: _370  and  _371
REMARK  153  A    between atoms: _374  and  _376
REMARK  154  A    between atoms: _376  and  _377
REMARK  155  A    between atoms: _376  and  _379
REMARK  156  A    between atoms: _379  and  _380
REMARK  157  A    between atoms: _383  and  _385
REMARK  158  A    between atoms: _385  and  _386
REMARK  159  A    between atoms: _385  and  _388
REMARK  160  A    between atoms: _388  and  _389
REMARK  161  A    between atoms: _392  and  _394
REMARK  162  A    between atoms: _394  and  _395
REMARK  163  A    between atoms: _394  and  _397
REMARK  164  A    between atoms: _400  and  _402
REMARK  165  A    between atoms: _402  and  _403
REMARK  166  A    between atoms: _402  and  _405
REMARK  167  A    between atoms: _405  and  _406
REMARK  168  A    between atoms: _406  and  _407
REMARK  169  A    between atoms: _407  and  _408
REMARK  170  A    between atoms: _408  and  _409
REMARK  171  A    between atoms: _413  and  _415
REMARK  172  A    between atoms: _415  and  _416
REMARK  173  A    between atoms: _415  and  _418
REMARK  174  A    between atoms: _418  and  _419
REMARK  175  A    between atoms: _419  and  _420
REMARK  176  A    between atoms: _422  and  _424
REMARK  177  A    between atoms: _424  and  _425
REMARK  178  A    between atoms: _424  and  _427
REMARK  179  A    between atoms: _427  and  _428
REMARK  180  A    between atoms: _431  and  _433
REMARK  181  A    between atoms: _433  and  _434
REMARK  182  A    between atoms: _436  and  _438
REMARK  183  A    between atoms: _438  and  _439
REMARK  184  A    between atoms: _441  and  _443
REMARK  185  A    between atoms: _443  and  _444
REMARK  186  A    between atoms: _443  and  _446
REMARK  187  A    between atoms: _446  and  _447
REMARK  188  A    between atoms: _450  and  _452
REMARK  189  A    between atoms: _452  and  _453
REMARK  190  A    between atoms: _455  and  _457
REMARK  191  A    between atoms: _457  and  _458
REMARK  192  A    between atoms: _460  and  _462
REMARK  193  A    between atoms: _462  and  _463
REMARK  194  A    between atoms: _462  and  _465
REMARK  195  A    between atoms: _465  and  _466
REMARK  196  A    between atoms: _472  and  _474
REMARK  197  A    between atoms: _474  and  _475
REMARK  198  A    between atoms: _474  and  _477
REMARK  199  A    between atoms: _477  and  _478
REMARK  200  A    between atoms: _481  and  _483
REMARK  201  A    between atoms: _483  and  _484
REMARK  202  A    between atoms: _483  and  _486
REMARK  203  A    between atoms: _489  and  _491
REMARK  204  A    between atoms: _491  and  _492
REMARK  205  A    between atoms: _491  and  _494
REMARK  206  A    between atoms: _494  and  _495
REMARK  207  A    between atoms: _499  and  _500
REMARK  208  A    between atoms: _505  and  _507
REMARK  209  A    between atoms: _507  and  _508
REMARK  210  A    between atoms: _507  and  _510
REMARK  211  A    between atoms: _510  and  _511
REMARK  212  A    between atoms: _515  and  _516
REMARK  213  A    between atoms: _521  and  _523
REMARK  214  A    between atoms: _523  and  _524
REMARK  215  A    between atoms: _523  and  _526
REMARK  216  A    between atoms: _529  and  _531
REMARK  217  A    between atoms: _531  and  _532
REMARK  218  A    between atoms: _531  and  _534
REMARK  219  A    between atoms: _534  and  _535
REMARK  220  A    between atoms: _540  and  _542
REMARK  221  A    between atoms: _542  and  _543
REMARK  222  A    between atoms: _542  and  _545
REMARK  223  A    between atoms: _545  and  _546
REMARK  224  A    between atoms: _549  and  _551
REMARK  225  A    between atoms: _551  and  _552
REMARK  226  A    between atoms: _551  and  _554
REMARK  227  A    between atoms: _554  and  _555
REMARK  228  A    between atoms: _558  and  _560
REMARK  229  A    between atoms: _560  and  _561
REMARK  230  A    between atoms: _563  and  _565
REMARK  231  A    between atoms: _565  and  _566
REMARK  232  A    between atoms: _565  and  _568
REMARK  233  A    between atoms: _568  and  _569
REMARK  234  A    between atoms: _569  and  _570
REMARK  235  A    between atoms: _570  and  _571
REMARK  236  A    between atoms: _580  and  _582
REMARK  237  A    between atoms: _582  and  _583
REMARK  238  A    between atoms: _582  and  _585
REMARK  239  A    between atoms: _585  and  _586
REMARK                            x       y       z     vdW  Elec       q    Type
REMARK                         _______ _______ _______ _____ _____    ______ ____
ROOT
ATOM      1  O   HOH     1      16.638  15.323   9.801  0.00  0.00    +0.000 OA
ENDROOT
TORSDOF 0
REMARK  Name = ../refined-set-2016/2aod/2aod_pocket.pdb
REMARK  239 active torsions:
REMARK  status: ('A' for Active; 'I' for Inactive)
REMARK    1  A    between atoms: _1  and  _3
REMARK    2  A    between atoms: _3  and  _4
REMARK    3  A    between atoms: _3  and  _6
REMARK    4  A    between atoms: _6  and  _7
REMARK    5  A    between atoms: _7  and  _8
REMARK    6  A    between atoms: _8  and  _9
REMARK    7  A    between atoms: _18  and  _20
REMARK    8  A    between atoms: _20  and  _21
REMARK    9  A    between atoms: _20  and  _23
REMARK   10  A    between atoms: _23  and  _24
REMARK   11  A    between atoms: _27  and  _29
REMARK   12  A    between atoms: _29  and  _30
REMARK   13  A    between atoms: _29  and  _32
REMARK   14  A    between atoms: _32  and  _33
REMARK   15  A    between atoms: _33  and  _34
REMARK   16  A    between atoms: _37  and  _39
REMARK   17  A    between atoms: _39  and  _40
REMARK   18  A    between atoms: _39  and  _42
REMARK   19  A    between atoms: _42  and  _43
REMARK   20  A    between atoms: _46  and  _48
REMARK   21  A    between atoms: _48  and  _49
REMARK   22  A    between atoms: _48  and  _51
REMARK   23  A    between atoms: _51  and  _52
REMARK   24  A    between atoms: _55  and  _57
REMARK   25  A    between atoms: _57  and  _58
REMARK   26  A    between atoms: _57  and  _60
REMARK   27  A    between atoms: _60  and  _61
REMARK   28  A    between atoms: _64  and  _66
REMARK   29  A    between atoms: _66  and  _67
REMARK   30  A    between atoms: _69  and  _71
REMARK   31  A    between atoms: _71  and  _72
REMARK   32  A    between atoms: _75  and  _77
REMARK   33  A    between atoms: _77  and  _78
REMARK   34  A    between atoms: _77  and  _80
REMARK   35  A    between atoms: _80  and  _81
REMARK   36  A    between atoms: _84  and  _86
REMARK   37  A    between atoms: _86  and  _87
REMARK   38  A    between atoms: _86  and  _89
REMARK   39  A    between atoms: _89  and  _90
REMARK   40  A    between atoms: _93  and  _95
REMARK   41  A    between atoms: _95  and  _96
REMARK   42  A    between atoms: _95  and  _98
REMARK   43  A    between atoms: _98  and  _99
REMARK   44  A    between atoms: _102  and  _104
REMARK   45  A    between atoms: _104  and  _105
REMARK   46  A    between atoms: _104  and  _107
REMARK   47  A    between atoms: _110  and  _112
REMARK   48  A    between atoms: _112  and  _113
REMARK   49  A    between atoms: _112  and  _115
REMARK   50  A    between atoms: _115  and  _116
REMARK   51  A    between atoms: _116  and  _117
REMARK   52  A    between atoms: _117  and  _118
REMARK   53  A    between atoms: _118  and  _119
REMARK   54  A    between atoms: _123  and  _125
REMARK   55  A    between atoms: _125  and  _126
REMARK   56  A    between atoms: _125  and  _128
REMARK   57  A    between atoms: _128  and  _129
REMARK   58  A    between atoms: _129  and  _130
REMARK   59  A    between atoms: _132  and  _134
REMARK   60  A    between atoms: _134  and  _135
REMARK   61  A    between atoms: _134  and  _137
REMARK   62  A    between atoms: _137  and  _138
REMARK   63  A    between atoms: _141  and  _143
REMARK   64  A    between atoms: _143  and  _144
REMARK   65  A    between atoms: _146  and  _148
REMARK   66  A    between atoms: _148  and  _149
REMARK   67  A    between atoms: _151  and  _153
REMARK   68  A    between atoms: _153  and  _154
REMARK   69  A    between atoms: _153  and  _156
REMARK   70  A    between atoms: _156  and  _157
REMARK   71  A    between atoms: _160  and  _162
REMARK   72  A    between atoms: _162  and  _163
REMARK   73  A    between atoms: _165  and  _167
REMARK   74  A    between atoms: _167  and  _168
REMARK   75  A    between atoms: _170  and  _172
REMARK   76  A    between atoms: _172  and  _173
REMARK   77  A    between atoms: _172  and  _175
REMARK   78  A    between atoms: _175  and  _176
REMARK   79  A    between atoms: _182  and  _184
REMARK   80  A    between atoms: _184  and  _185
REMARK   81  A    between atoms: _184  and  _187
REMARK   82  A    between atoms: _187  and  _188
REMARK   83  A    between atoms: _191  and  _193
REMARK   84  A    between atoms: _193  and  _194
REMARK   85  A    between atoms: _193  and  _196
REMARK   86  A    between atoms: _199  and  _201
REMARK   87  A    between atoms: _201  and  _202
REMARK   88  A    between atoms: _201  and  _204
REMARK   89  A    between atoms: _204  and  _205
REMARK   90  A    between atoms: _209  and  _210
REMARK   91  A    between atoms: _215  and  _217
REMARK   92  A    between atoms: _217  and  _218
REMARK   93  A    between atoms: _217  and  _220
REMARK   94  A    between atoms: _220  and  _221
REMARK   95  A    between atoms: _225  and  _226
REMARK   96  A    between atoms: _231  and  _233
REMARK   97  A    between atoms: _233  and  _234
REMARK   98  A    between atoms: _233  and  _236
REMARK   99  A    between atoms: _239  and  _241
REMARK  100  A    between atoms: _241  and  _242
REMARK  101  A    between atoms: _241  and  _244
REMARK  102  A    between atoms: _244  and  _245
REMARK  103  A    between atoms: _250  and  _252
REMARK  104  A    between atoms: _252  and  _253
REMARK  105  A    between atoms: _252  and  _255
REMARK  106  A    between atoms: _255  and  _256
REMARK  107  A    between atoms: _259  and  _261
REMARK  108  A    between atoms: _261  and  _262
REMARK  109  A    between atoms: _261  and  _264
REMARK  110  A    between atoms: _264  and  _265
REMARK  111  A    between atoms: _268  and  _270
REMARK  112  A    between atoms: _270  and  _271
REMARK  113  A    between atoms: _273  and  _275
REMARK  114  A    between atoms: _275  and  _276
REMARK  115  A    between atoms: _275  and  _278
REMARK  116  A    between atoms: _278  and  _279
REMARK  117  A    between atoms: _279  and  _280
REMARK  118  A    between atoms: _280  and  _281
REMARK  119  A    between atoms: _290  and  _292
REMARK  120  A    between atoms: _292  and  _293
REMARK  121  A    between atoms: _292  and  _295
REMARK  122  A    between atoms: _295  and  _296
REMARK  123  A    between atoms: _301  and  _303
REMARK  124  A    between atoms: _303  and  _304
REMARK  125  A    between atoms: _303  and  _306
REMARK  126  A    between atoms: _306  and  _307
REMARK  127  A    between atoms: _307  and  _308
REMARK  128  A    between atoms: _308  and  _309
REMARK  129  A    between atoms: _318  and  _320
REMARK  130  A    between atoms: _320  and  _321
REMARK  131  A    between atoms: _320  and  _323
REMARK  132  A    between atoms: _323  and  _324
REMARK  133  A    between atoms: _327  and  _329
REMARK  134  A    between atoms: _329  and  _330
REMARK  135  A    between atoms: _329  and  _332
REMARK  136  A    between atoms: _332  and  _333
REMARK  137  A    between atoms: _336  and  _338
REMARK  138  A    between atoms: _338  and  _339
REMARK  139  A    between atoms: _338  and  _341
REMARK  140  A    between atoms: _341  and  _342
REMARK  141  A    between atoms: _345  and  _347
REMARK  142  A    between atoms: _347  and  _348
REMARK  143  A    between atoms: _347  and  _350
REMARK  144  A    between atoms: _350  and  _351
REMARK  145  A    between atoms: _354  and  _356
REMARK  146  A    between atoms: _356  and  _357
REMARK  147  A    between atoms: _359  and  _361
REMARK  148  A    between atoms: _361  and  _362
REMARK  149  A    between atoms: _365  and  _367
REMARK  150  A    between atoms: _367  and  _368
REMARK  151  A    between atoms: _367  and  _370
REMARK  152  A    between atoms: _370  and  _371
REMARK  153  A    between atoms: _374  and  _376
REMARK  154  A    between atoms: _376  and  _377
REMARK  155  A    between atoms: _376  and  _379
REMARK  156  A    between atoms: _379  and  _380
REMARK  157  A    between atoms: _383  and  _385
REMARK  158  A    between atoms: _385  and  _386
REMARK  159  A    between atoms: _385  and  _388
REMARK  160  A    between atoms: _388  and  _389
REMARK  161  A    between atoms: _392  and  _394
REMARK  162  A    between atoms: _394  and  _395
REMARK  163  A    between atoms: _394  and  _397
REMARK  164  A    between atoms: _400  and  _402
REMARK  165  A    between atoms: _402  and  _403
REMARK  166  A    between atoms: _402  and  _405
REMARK  167  A    between atoms: _405  and  _406
REMARK  168  A    between atoms: _406  and  _407
REMARK  169  A    between atoms: _407  and  _408
REMARK  170  A    between atoms: _408  and  _409
REMARK  171  A    between atoms: _413  and  _415
REMARK  172  A    between atoms: _415  and  _416
REMARK  173  A    between atoms: _415  and  _418
REMARK  174  A    between atoms: _418  and  _419
REMARK  175  A    between atoms: _419  and  _420
REMARK  176  A    between atoms: _422  and  _424
REMARK  177  A    between atoms: _424  and  _425
REMARK  178  A    between atoms: _424  and  _427
REMARK  179  A    between atoms: _427  and  _428
REMARK  180  A    between atoms: _431  and  _433
REMARK  181  A    between atoms: _433  and  _434
REMARK  182  A    between atoms: _436  and  _438
REMARK  183  A    between atoms: _438  and  _439
REMARK  184  A    between atoms: _441  and  _443
REMARK  185  A    between atoms: _443  and  _444
REMARK  186  A    between atoms: _443  and  _446
REMARK  187  A    between atoms: _446  and  _447
REMARK  188  A    between atoms: _450  and  _452
REMARK  189  A    between atoms: _452  and  _453
REMARK  190  A    between atoms: _455  and  _457
REMARK  191  A    between atoms: _457  and  _458
REMARK  192  A    between atoms: _460  and  _462
REMARK  193  A    between atoms: _462  and  _463
REMARK  194  A    between atoms: _462  and  _465
REMARK  195  A    between atoms: _465  and  _466
REMARK  196  A    between atoms: _472  and  _474
REMARK  197  A    between atoms: _474  and  _475
REMARK  198  A    between atoms: _474  and  _477
REMARK  199  A    between atoms: _477  and  _478
REMARK  200  A    between atoms: _481  and  _483
REMARK  201  A    between atoms: _483  and  _484
REMARK  202  A    between atoms: _483  and  _486
REMARK  203  A    between atoms: _489  and  _491
REMARK  204  A    between atoms: _491  and  _492
REMARK  205  A    between atoms: _491  and  _494
REMARK  206  A    between atoms: _494  and  _495
REMARK  207  A    between atoms: _499  and  _500
REMARK  208  A    between atoms: _505  and  _507
REMARK  209  A    between atoms: _507  and  _508
REMARK  210  A    between atoms: _507  and  _510
REMARK  211  A    between atoms: _510  and  _511
REMARK  212  A    between atoms: _515  and  _516
REMARK  213  A    between atoms: _521  and  _523
REMARK  214  A    between atoms: _523  and  _524
REMARK  215  A    between atoms: _523  and  _526
REMARK  216  A    between atoms: _529  and  _531
REMARK  217  A    between atoms: _531  and  _532
REMARK  218  A    between atoms: _531  and  _534
REMARK  219  A    between atoms: _534  and  _535
REMARK  220  A    between atoms: _540  and  _542
REMARK  221  A    between atoms: _542  and  _543
REMARK  222  A    between atoms: _542  and  _545
REMARK  223  A    between atoms: _545  and  _546
REMARK  224  A    between atoms: _549  and  _551
REMARK  225  A    between atoms: _551  and  _552
REMARK  226  A    between atoms: _551  and  _554
REMARK  227  A    between atoms: _554  and  _555
REMARK  228  A    between atoms: _558  and  _560
REMARK  229  A    between atoms: _560  and  _561
REMARK  230  A    between atoms: _563  and  _565
REMARK  231  A    between atoms: _565  and  _566
REMARK  232  A    between atoms: _565  and  _568
REMARK  233  A    between atoms: _568  and  _569
REMARK  234  A    between atoms: _569  and  _570
REMARK  235  A    between atoms: _570  and  _571
REMARK  236  A    between atoms: _580  and  _582
REMARK  237  A    between atoms: _582  and  _583
REMARK  238  A    between atoms: _582  and  _585
REMARK  239  A    between atoms: _585  and  _586
REMARK                            x       y       z     vdW  Elec       q    Type
REMARK                         _______ _______ _______ _____ _____    ______ ____
ROOT
ATOM      1  O   HOH     1       5.002  16.237  21.889  0.00  0.00    +0.000 OA
ENDROOT
TORSDOF 0
REMARK  Name = ../refined-set-2016/2aod/2aod_pocket.pdb
REMARK  239 active torsions:
REMARK  status: ('A' for Active; 'I' for Inactive)
REMARK    1  A    between atoms: _1  and  _3
REMARK    2  A    between atoms: _3  and  _4
REMARK    3  A    between atoms: _3  and  _6
REMARK    4  A    between atoms: _6  and  _7
REMARK    5  A    between atoms: _7  and  _8
REMARK    6  A    between atoms: _8  and  _9
REMARK    7  A    between atoms: _18  and  _20
REMARK    8  A    between atoms: _20  and  _21
REMARK    9  A    between atoms: _20  and  _23
REMARK   10  A    between atoms: _23  and  _24
REMARK   11  A    between atoms: _27  and  _29
REMARK   12  A    between atoms: _29  and  _30
REMARK   13  A    between atoms: _29  and  _32
REMARK   14  A    between atoms: _32  and  _33
REMARK   15  A    between atoms: _33  and  _34
REMARK   16  A    between atoms: _37  and  _39
REMARK   17  A    between atoms: _39  and  _40
REMARK   18  A    between atoms: _39  and  _42
REMARK   19  A    between atoms: _42  and  _43
REMARK   20  A    between atoms: _46  and  _48
REMARK   21  A    between atoms: _48  and  _49
REMARK   22  A    between atoms: _48  and  _51
REMARK   23  A    between atoms: _51  and  _52
REMARK   24  A    between atoms: _55  and  _57
REMARK   25  A    between atoms: _57  and  _58
REMARK   26  A    between atoms: _57  and  _60
REMARK   27  A    between atoms: _60  and  _61
REMARK   28  A    between atoms: _64  and  _66
REMARK   29  A    between atoms: _66  and  _67
REMARK   30  A    between atoms: _69  and  _71
REMARK   31  A    between atoms: _71  and  _72
REMARK   32  A    between atoms: _75  and  _77
REMARK   33  A    between atoms: _77  and  _78
REMARK   34  A    between atoms: _77  and  _80
REMARK   35  A    between atoms: _80  and  _81
REMARK   36  A    between atoms: _84  and  _86
REMARK   37  A    between atoms: _86  and  _87
REMARK   38  A    between atoms: _86  and  _89
REMARK   39  A    between atoms: _89  and  _90
REMARK   40  A    between atoms: _93  and  _95
REMARK   41  A    between atoms: _95  and  _96
REMARK   42  A    between atoms: _95  and  _98
REMARK   43  A    between atoms: _98  and  _99
REMARK   44  A    between atoms: _102  and  _104
REMARK   45  A    between atoms: _104  and  _105
REMARK   46  A    between atoms: _104  and  _107
REMARK   47  A    between atoms: _110  and  _112
REMARK   48  A    between atoms: _112  and  _113
REMARK   49  A    between atoms: _112  and  _115
REMARK   50  A    between atoms: _115  and  _116
REMARK   51  A    between atoms: _116  and  _117
REMARK   52  A    between atoms: _117  and  _118
REMARK   53  A    between atoms: _118  and  _119
REMARK   54  A    between atoms: _123  and  _125
REMARK   55  A    between atoms: _125  and  _126
REMARK   56  A    between atoms: _125  and  _128
REMARK   57  A    between atoms: _128  and  _129
REMARK   58  A    between atoms: _129  and  _130
REMARK   59  A    between atoms: _132  and  _134
REMARK   60  A    between atoms: _134  and  _135
REMARK   61  A    between atoms: _134  and  _137
REMARK   62  A    between atoms: _137  and  _138
REMARK   63  A    between atoms: _141  and  _143
REMARK   64  A    between atoms: _143  and  _144
REMARK   65  A    between atoms: _146  and  _148
REMARK   66  A    between atoms: _148  and  _149
REMARK   67  A    between atoms: _151  and  _153
REMARK   68  A    between atoms: _153  and  _154
REMARK   69  A    between atoms: _153  and  _156
REMARK   70  A    between atoms: _156  and  _157
REMARK   71  A    between atoms: _160  and  _162
REMARK   72  A    between atoms: _162  and  _163
REMARK   73  A    between atoms: _165  and  _167
REMARK   74  A    between atoms: _167  and  _168
REMARK   75  A    between atoms: _170  and  _172
REMARK   76  A    between atoms: _172  and  _173
REMARK   77  A    between atoms: _172  and  _175
REMARK   78  A    between atoms: _175  and  _176
REMARK   79  A    between atoms: _182  and  _184
REMARK   80  A    between atoms: _184  and  _185
REMARK   81  A    between atoms: _184  and  _187
REMARK   82  A    between atoms: _187  and  _188
REMARK   83  A    between atoms: _191  and  _193
REMARK   84  A    between atoms: _193  and  _194
REMARK   85  A    between atoms: _193  and  _196
REMARK   86  A    between atoms: _199  and  _201
REMARK   87  A    between atoms: _201  and  _202
REMARK   88  A    between atoms: _201  and  _204
REMARK   89  A    between atoms: _204  and  _205
REMARK   90  A    between atoms: _209  and  _210
REMARK   91  A    between atoms: _215  and  _217
REMARK   92  A    between atoms: _217  and  _218
REMARK   93  A    between atoms: _217  and  _220
REMARK   94  A    between atoms: _220  and  _221
REMARK   95  A    between atoms: _225  and  _226
REMARK   96  A    between atoms: _231  and  _233
REMARK   97  A    between atoms: _233  and  _234
REMARK   98  A    between atoms: _233  and  _236
REMARK   99  A    between atoms: _239  and  _241
REMARK  100  A    between atoms: _241  and  _242
REMARK  101  A    between atoms: _241  and  _244
REMARK  102  A    between atoms: _244  and  _245
REMARK  103  A    between atoms: _250  and  _252
REMARK  104  A    between atoms: _252  and  _253
REMARK  105  A    between atoms: _252  and  _255
REMARK  106  A    between atoms: _255  and  _256
REMARK  107  A    between atoms: _259  and  _261
REMARK  108  A    between atoms: _261  and  _262
REMARK  109  A    between atoms: _261  and  _264
REMARK  110  A    between atoms: _264  and  _265
REMARK  111  A    between atoms: _268  and  _270
REMARK  112  A    between atoms: _270  and  _271
REMARK  113  A    between atoms: _273  and  _275
REMARK  114  A    between atoms: _275  and  _276
REMARK  115  A    between atoms: _275  and  _278
REMARK  116  A    between atoms: _278  and  _279
REMARK  117  A    between atoms: _279  and  _280
REMARK  118  A    between atoms: _280  and  _281
REMARK  119  A    between atoms: _290  and  _292
REMARK  120  A    between atoms: _292  and  _293
REMARK  121  A    between atoms: _292  and  _295
REMARK  122  A    between atoms: _295  and  _296
REMARK  123  A    between atoms: _301  and  _303
REMARK  124  A    between atoms: _303  and  _304
REMARK  125  A    between atoms: _303  and  _306
REMARK  126  A    between atoms: _306  and  _307
REMARK  127  A    between atoms: _307  and  _308
REMARK  128  A    between atoms: _308  and  _309
REMARK  129  A    between atoms: _318  and  _320
REMARK  130  A    between atoms: _320  and  _321
REMARK  131  A    between atoms: _320  and  _323
REMARK  132  A    between atoms: _323  and  _324
REMARK  133  A    between atoms: _327  and  _329
REMARK  134  A    between atoms: _329  and  _330
REMARK  135  A    between atoms: _329  and  _332
REMARK  136  A    between atoms: _332  and  _333
REMARK  137  A    between atoms: _336  and  _338
REMARK  138  A    between atoms: _338  and  _339
REMARK  139  A    between atoms: _338  and  _341
REMARK  140  A    between atoms: _341  and  _342
REMARK  141  A    between atoms: _345  and  _347
REMARK  142  A    between atoms: _347  and  _348
REMARK  143  A    between atoms: _347  and  _350
REMARK  144  A    between atoms: _350  and  _351
REMARK  145  A    between atoms: _354  and  _356
REMARK  146  A    between atoms: _356  and  _357
REMARK  147  A    between atoms: _359  and  _361
REMARK  148  A    between atoms: _361  and  _362
REMARK  149  A    between atoms: _365  and  _367
REMARK  150  A    between atoms: _367  and  _368
REMARK  151  A    between atoms: _367  and  _370
REMARK  152  A    between atoms: _370  and  _371
REMARK  153  A    between atoms: _374  and  _376
REMARK  154  A    between atoms: _376  and  _377
REMARK  155  A    between atoms: _376  and  _379
REMARK  156  A    between atoms: _379  and  _380
REMARK  157  A    between atoms: _383  and  _385
REMARK  158  A    between atoms: _385  and  _386
REMARK  159  A    between atoms: _385  and  _388
REMARK  160  A    between atoms: _388  and  _389
REMARK  161  A    between atoms: _392  and  _394
REMARK  162  A    between atoms: _394  and  _395
REMARK  163  A    between atoms: _394  and  _397
REMARK  164  A    between atoms: _400  and  _402
REMARK  165  A    between atoms: _402  and  _403
REMARK  166  A    between atoms: _402  and  _405
REMARK  167  A    between atoms: _405  and  _406
REMARK  168  A    between atoms: _406  and  _407
REMARK  169  A    between atoms: _407  and  _408
REMARK  170  A    between atoms: _408  and  _409
REMARK  171  A    between atoms: _413  and  _415
REMARK  172  A    between atoms: _415  and  _416
REMARK  173  A    between atoms: _415  and  _418
REMARK  174  A    between atoms: _418  and  _419
REMARK  175  A    between atoms: _419  and  _420
REMARK  176  A    between atoms: _422  and  _424
REMARK  177  A    between atoms: _424  and  _425
REMARK  178  A    between atoms: _424  and  _427
REMARK  179  A    between atoms: _427  and  _428
REMARK  180  A    between atoms: _431  and  _433
REMARK  181  A    between atoms: _433  and  _434
REMARK  182  A    between atoms: _436  and  _438
REMARK  183  A    between atoms: _438  and  _439
REMARK  184  A    between atoms: _441  and  _443
REMARK  185  A    between atoms: _443  and  _444
REMARK  186  A    between atoms: _443  and  _446
REMARK  187  A    between atoms: _446  and  _447
REMARK  188  A    between atoms: _450  and  _452
REMARK  189  A    between atoms: _452  and  _453
REMARK  190  A    between atoms: _455  and  _457
REMARK  191  A    between atoms: _457  and  _458
REMARK  192  A    between atoms: _460  and  _462
REMARK  193  A    between atoms: _462  and  _463
REMARK  194  A    between atoms: _462  and  _465
REMARK  195  A    between atoms: _465  and  _466
REMARK  196  A    between atoms: _472  and  _474
REMARK  197  A    between atoms: _474  and  _475
REMARK  198  A    between atoms: _474  and  _477
REMARK  199  A    between atoms: _477  and  _478
REMARK  200  A    between atoms: _481  and  _483
REMARK  201  A    between atoms: _483  and  _484
REMARK  202  A    between atoms: _483  and  _486
REMARK  203  A    between atoms: _489  and  _491
REMARK  204  A    between atoms: _491  and  _492
REMARK  205  A    between atoms: _491  and  _494
REMARK  206  A    between atoms: _494  and  _495
REMARK  207  A    between atoms: _499  and  _500
REMARK  208  A    between atoms: _505  and  _507
REMARK  209  A    between atoms: _507  and  _508
REMARK  210  A    between atoms: _507  and  _510
REMARK  211  A    between atoms: _510  and  _511
REMARK  212  A    between atoms: _515  and  _516
REMARK  213  A    between atoms: _521  and  _523
REMARK  214  A    between atoms: _523  and  _524
REMARK  215  A    between atoms: _523  and  _526
REMARK  216  A    between atoms: _529  and  _531
REMARK  217  A    between atoms: _531  and  _532
REMARK  218  A    between atoms: _531  and  _534
REMARK  219  A    between atoms: _534  and  _535
REMARK  220  A    between atoms: _540  and  _542
REMARK  221  A    between atoms: _542  and  _543
REMARK  222  A    between atoms: _542  and  _545
REMARK  223  A    between atoms: _545  and  _546
REMARK  224  A    between atoms: _549  and  _551
REMARK  225  A    between atoms: _551  and  _552
REMARK  226  A    between atoms: _551  and  _554
REMARK  227  A    between atoms: _554  and  _555
REMARK  228  A    between atoms: _558  and  _560
REMARK  229  A    between atoms: _560  and  _561
REMARK  230  A    between atoms: _563  and  _565
REMARK  231  A    between atoms: _565  and  _566
REMARK  232  A    between atoms: _565  and  _568
REMARK  233  A    between atoms: _568  and  _569
REMARK  234  A    between atoms: _569  and  _570
REMARK  235  A    between atoms: _570  and  _571
REMARK  236  A    between atoms: _580  and  _582
REMARK  237  A    between atoms: _582  and  _583
REMARK  238  A    between atoms: _582  and  _585
REMARK  239  A    between atoms: _585  and  _586
REMARK                            x       y       z     vdW  Elec       q    Type
REMARK                         _______ _______ _______ _____ _____    ______ ____
ROOT
ATOM      1  O   HOH     1      25.587  25.212  22.372  0.00  0.00    +0.000 OA
ENDROOT
TORSDOF 0
REMARK  Name = ../refined-set-2016/2aod/2aod_pocket.pdb
REMARK  239 active torsions:
REMARK  status: ('A' for Active; 'I' for Inactive)
REMARK    1  A    between atoms: _1  and  _3
REMARK    2  A    between atoms: _3  and  _4
REMARK    3  A    between atoms: _3  and  _6
REMARK    4  A    between atoms: _6  and  _7
REMARK    5  A    between atoms: _7  and  _8
REMARK    6  A    between atoms: _8  and  _9
REMARK    7  A    between atoms: _18  and  _20
REMARK    8  A    between atoms: _20  and  _21
REMARK    9  A    between atoms: _20  and  _23
REMARK   10  A    between atoms: _23  and  _24
REMARK   11  A    between atoms: _27  and  _29
REMARK   12  A    between atoms: _29  and  _30
REMARK   13  A    between atoms: _29  and  _32
REMARK   14  A    between atoms: _32  and  _33
REMARK   15  A    between atoms: _33  and  _34
REMARK   16  A    between atoms: _37  and  _39
REMARK   17  A    between atoms: _39  and  _40
REMARK   18  A    between atoms: _39  and  _42
REMARK   19  A    between atoms: _42  and  _43
REMARK   20  A    between atoms: _46  and  _48
REMARK   21  A    between atoms: _48  and  _49
REMARK   22  A    between atoms: _48  and  _51
REMARK   23  A    between atoms: _51  and  _52
REMARK   24  A    between atoms: _55  and  _57
REMARK   25  A    between atoms: _57  and  _58
REMARK   26  A    between atoms: _57  and  _60
REMARK   27  A    between atoms: _60  and  _61
REMARK   28  A    between atoms: _64  and  _66
REMARK   29  A    between atoms: _66  and  _67
REMARK   30  A    between atoms: _69  and  _71
REMARK   31  A    between atoms: _71  and  _72
REMARK   32  A    between atoms: _75  and  _77
REMARK   33  A    between atoms: _77  and  _78
REMARK   34  A    between atoms: _77  and  _80
REMARK   35  A    between atoms: _80  and  _81
REMARK   36  A    between atoms: _84  and  _86
REMARK   37  A    between atoms: _86  and  _87
REMARK   38  A    between atoms: _86  and  _89
REMARK   39  A    between atoms: _89  and  _90
REMARK   40  A    between atoms: _93  and  _95
REMARK   41  A    between atoms: _95  and  _96
REMARK   42  A    between atoms: _95  and  _98
REMARK   43  A    between atoms: _98  and  _99
REMARK   44  A    between atoms: _102  and  _104
REMARK   45  A    between atoms: _104  and  _105
REMARK   46  A    between atoms: _104  and  _107
REMARK   47  A    between atoms: _110  and  _112
REMARK   48  A    between atoms: _112  and  _113
REMARK   49  A    between atoms: _112  and  _115
REMARK   50  A    between atoms: _115  and  _116
REMARK   51  A    between atoms: _116  and  _117
REMARK   52  A    between atoms: _117  and  _118
REMARK   53  A    between atoms: _118  and  _119
REMARK   54  A    between atoms: _123  and  _125
REMARK   55  A    between atoms: _125  and  _126
REMARK   56  A    between atoms: _125  and  _128
REMARK   57  A    between atoms: _128  and  _129
REMARK   58  A    between atoms: _129  and  _130
REMARK   59  A    between atoms: _132  and  _134
REMARK   60  A    between atoms: _134  and  _135
REMARK   61  A    between atoms: _134  and  _137
REMARK   62  A    between atoms: _137  and  _138
REMARK   63  A    between atoms: _141  and  _143
REMARK   64  A    between atoms: _143  and  _144
REMARK   65  A    between atoms: _146  and  _148
REMARK   66  A    between atoms: _148  and  _149
REMARK   67  A    between atoms: _151  and  _153
REMARK   68  A    between atoms: _153  and  _154
REMARK   69  A    between atoms: _153  and  _156
REMARK   70  A    between atoms: _156  and  _157
REMARK   71  A    between atoms: _160  and  _162
REMARK   72  A    between atoms: _162  and  _163
REMARK   73  A    between atoms: _165  and  _167
REMARK   74  A    between atoms: _167  and  _168
REMARK   75  A    between atoms: _170  and  _172
REMARK   76  A    between atoms: _172  and  _173
REMARK   77  A    between atoms: _172  and  _175
REMARK   78  A    between atoms: _175  and  _176
REMARK   79  A    between atoms: _182  and  _184
REMARK   80  A    between atoms: _184  and  _185
REMARK   81  A    between atoms: _184  and  _187
REMARK   82  A    between atoms: _187  and  _188
REMARK   83  A    between atoms: _191  and  _193
REMARK   84  A    between atoms: _193  and  _194
REMARK   85  A    between atoms: _193  and  _196
REMARK   86  A    between atoms: _199  and  _201
REMARK   87  A    between atoms: _201  and  _202
REMARK   88  A    between atoms: _201  and  _204
REMARK   89  A    between atoms: _204  and  _205
REMARK   90  A    between atoms: _209  and  _210
REMARK   91  A    between atoms: _215  and  _217
REMARK   92  A    between atoms: _217  and  _218
REMARK   93  A    between atoms: _217  and  _220
REMARK   94  A    between atoms: _220  and  _221
REMARK   95  A    between atoms: _225  and  _226
REMARK   96  A    between atoms: _231  and  _233
REMARK   97  A    between atoms: _233  and  _234
REMARK   98  A    between atoms: _233  and  _236
REMARK   99  A    between atoms: _239  and  _241
REMARK  100  A    between atoms: _241  and  _242
REMARK  101  A    between atoms: _241  and  _244
REMARK  102  A    between atoms: _244  and  _245
REMARK  103  A    between atoms: _250  and  _252
REMARK  104  A    between atoms: _252  and  _253
REMARK  105  A    between atoms: _252  and  _255
REMARK  106  A    between atoms: _255  and  _256
REMARK  107  A    between atoms: _259  and  _261
REMARK  108  A    between atoms: _261  and  _262
REMARK  109  A    between atoms: _261  and  _264
REMARK  110  A    between atoms: _264  and  _265
REMARK  111  A    between atoms: _268  and  _270
REMARK  112  A    between atoms: _270  and  _271
REMARK  113  A    between atoms: _273  and  _275
REMARK  114  A    between atoms: _275  and  _276
REMARK  115  A    between atoms: _275  and  _278
REMARK  116  A    between atoms: _278  and  _279
REMARK  117  A    between atoms: _279  and  _280
REMARK  118  A    between atoms: _280  and  _281
REMARK  119  A    between atoms: _290  and  _292
REMARK  120  A    between atoms: _292  and  _293
REMARK  121  A    between atoms: _292  and  _295
REMARK  122  A    between atoms: _295  and  _296
REMARK  123  A    between atoms: _301  and  _303
REMARK  124  A    between atoms: _303  and  _304
REMARK  125  A    between atoms: _303  and  _306
REMARK  126  A    between atoms: _306  and  _307
REMARK  127  A    between atoms: _307  and  _308
REMARK  128  A    between atoms: _308  and  _309
REMARK  129  A    between atoms: _318  and  _320
REMARK  130  A    between atoms: _320  and  _321
REMARK  131  A    between atoms: _320  and  _323
REMARK  132  A    between atoms: _323  and  _324
REMARK  133  A    between atoms: _327  and  _329
REMARK  134  A    between atoms: _329  and  _330
REMARK  135  A    between atoms: _329  and  _332
REMARK  136  A    between atoms: _332  and  _333
REMARK  137  A    between atoms: _336  and  _338
REMARK  138  A    between atoms: _338  and  _339
REMARK  139  A    between atoms: _338  and  _341
REMARK  140  A    between atoms: _341  and  _342
REMARK  141  A    between atoms: _345  and  _347
REMARK  142  A    between atoms: _347  and  _348
REMARK  143  A    between atoms: _347  and  _350
REMARK  144  A    between atoms: _350  and  _351
REMARK  145  A    between atoms: _354  and  _356
REMARK  146  A    between atoms: _356  and  _357
REMARK  147  A    between atoms: _359  and  _361
REMARK  148  A    between atoms: _361  and  _362
REMARK  149  A    between atoms: _365  and  _367
REMARK  150  A    between atoms: _367  and  _368
REMARK  151  A    between atoms: _367  and  _370
REMARK  152  A    between atoms: _370  and  _371
REMARK  153  A    between atoms: _374  and  _376
REMARK  154  A    between atoms: _376  and  _377
REMARK  155  A    between atoms: _376  and  _379
REMARK  156  A    between atoms: _379  and  _380
REMARK  157  A    between atoms: _383  and  _385
REMARK  158  A    between atoms: _385  and  _386
REMARK  159  A    between atoms: _385  and  _388
REMARK  160  A    between atoms: _388  and  _389
REMARK  161  A    between atoms: _392  and  _394
REMARK  162  A    between atoms: _394  and  _395
REMARK  163  A    between atoms: _394  and  _397
REMARK  164  A    between atoms: _400  and  _402
REMARK  165  A    between atoms: _402  and  _403
REMARK  166  A    between atoms: _402  and  _405
REMARK  167  A    between atoms: _405  and  _406
REMARK  168  A    between atoms: _406  and  _407
REMARK  169  A    between atoms: _407  and  _408
REMARK  170  A    between atoms: _408  and  _409
REMARK  171  A    between atoms: _413  and  _415
REMARK  172  A    between atoms: _415  and  _416
REMARK  173  A    between atoms: _415  and  _418
REMARK  174  A    between atoms: _418  and  _419
REMARK  175  A    between atoms: _419  and  _420
REMARK  176  A    between atoms: _422  and  _424
REMARK  177  A    between atoms: _424  and  _425
REMARK  178  A    between atoms: _424  and  _427
REMARK  179  A    between atoms: _427  and  _428
REMARK  180  A    between atoms: _431  and  _433
REMARK  181  A    between atoms: _433  and  _434
REMARK  182  A    between atoms: _436  and  _438
REMARK  183  A    between atoms: _438  and  _439
REMARK  184  A    between atoms: _441  and  _443
REMARK  185  A    between atoms: _443  and  _444
REMARK  186  A    between atoms: _443  and  _446
REMARK  187  A    between atoms: _446  and  _447
REMARK  188  A    between atoms: _450  and  _452
REMARK  189  A    between atoms: _452  and  _453
REMARK  190  A    between atoms: _455  and  _457
REMARK  191  A    between atoms: _457  and  _458
REMARK  192  A    between atoms: _460  and  _462
REMARK  193  A    between atoms: _462  and  _463
REMARK  194  A    between atoms: _462  and  _465
REMARK  195  A    between atoms: _465  and  _466
REMARK  196  A    between atoms: _472  and  _474
REMARK  197  A    between atoms: _474  and  _475
REMARK  198  A    between atoms: _474  and  _477
REMARK  199  A    between atoms: _477  and  _478
REMARK  200  A    between atoms: _481  and  _483
REMARK  201  A    between atoms: _483  and  _484
REMARK  202  A    between atoms: _483  and  _486
REMARK  203  A    between atoms: _489  and  _491
REMARK  204  A    between atoms: _491  and  _492
REMARK  205  A    between atoms: _491  and  _494
REMARK  206  A    between atoms: _494  and  _495
REMARK  207  A    between atoms: _499  and  _500
REMARK  208  A    between atoms: _505  and  _507
REMARK  209  A    between atoms: _507  and  _508
REMARK  210  A    between atoms: _507  and  _510
REMARK  211  A    between atoms: _510  and  _511
REMARK  212  A    between atoms: _515  and  _516
REMARK  213  A    between atoms: _521  and  _523
REMARK  214  A    between atoms: _523  and  _524
REMARK  215  A    between atoms: _523  and  _526
REMARK  216  A    between atoms: _529  and  _531
REMARK  217  A    between atoms: _531  and  _532
REMARK  218  A    between atoms: _531  and  _534
REMARK  219  A    between atoms: _534  and  _535
REMARK  220  A    between atoms: _540  and  _542
REMARK  221  A    between atoms: _542  and  _543
REMARK  222  A    between atoms: _542  and  _545
REMARK  223  A    between atoms: _545  and  _546
REMARK  224  A    between atoms: _549  and  _551
REMARK  225  A    between atoms: _551  and  _552
REMARK  226  A    between atoms: _551  and  _554
REMARK  227  A    between atoms: _554  and  _555
REMARK  228  A    between atoms: _558  and  _560
REMARK  229  A    between atoms: _560  and  _561
REMARK  230  A    between atoms: _563  and  _565
REMARK  231  A    between atoms: _565  and  _566
REMARK  232  A    between atoms: _565  and  _568
REMARK  233  A    between atoms: _568  and  _569
REMARK  234  A    between atoms: _569  and  _570
REMARK  235  A    between atoms: _570  and  _571
REMARK  236  A    between atoms: _580  and  _582
REMARK  237  A    between atoms: _582  and  _583
REMARK  238  A    between atoms: _582  and  _585
REMARK  239  A    between atoms: _585  and  _586
REMARK                            x       y       z     vdW  Elec       q    Type
REMARK                         _______ _______ _______ _____ _____    ______ ____
ROOT
ATOM      1  O   HOH     1       9.227  12.660  18.314  0.00  0.00    +0.000 OA
ENDROOT
TORSDOF 0
