REMARK  Name = ../refined-set-2016/4gg7/4gg7_pocket.pdb
REMARK  234 active torsions:
REMARK  status: ('A' for Active; 'I' for Inactive)
REMARK    1  A    between atoms: _1  and  _3
REMARK    2  A    between atoms: _3  and  _4
REMARK    3  A    between atoms: _3  and  _6
REMARK    4  A    between atoms: _9  and  _11
REMARK    5  A    between atoms: _11  and  _12
REMARK    6  A    between atoms: _11  and  _14
REMARK    7  A    between atoms: _14  and  _15
REMARK    8  A    between atoms: _18  and  _20
REMARK    9  A    between atoms: _20  and  _21
REMARK   10  A    between atoms: _23  and  _25
REMARK   11  A    between atoms: _25  and  _26
REMARK   12  A    between atoms: _25  and  _28
REMARK   13  A    between atoms: _28  and  _29
REMARK   14  A    between atoms: _29  and  _30
REMARK   15  A    between atoms: _30  and  _31
REMARK   16  A    between atoms: _40  and  _42
REMARK   17  A    between atoms: _42  and  _43
REMARK   18  A    between atoms: _45  and  _47
REMARK   19  A    between atoms: _47  and  _48
REMARK   20  A    between atoms: _50  and  _52
REMARK   21  A    between atoms: _52  and  _53
REMARK   22  A    between atoms: _52  and  _55
REMARK   23  A    between atoms: _57  and  _59
REMARK   24  A    between atoms: _59  and  _60
REMARK   25  A    between atoms: _59  and  _62
REMARK   26  A    between atoms: _65  and  _67
REMARK   27  A    between atoms: _67  and  _68
REMARK   28  A    between atoms: _67  and  _70
REMARK   29  A    between atoms: _70  and  _71
REMARK   30  A    between atoms: _76  and  _77
REMARK   31  A    between atoms: _79  and  _81
REMARK   32  A    between atoms: _81  and  _82
REMARK   33  A    between atoms: _81  and  _84
REMARK   34  A    between atoms: _84  and  _85
REMARK   35  A    between atoms: _90  and  _92
REMARK   36  A    between atoms: _92  and  _93
REMARK   37  A    between atoms: _92  and  _95
REMARK   38  A    between atoms: _95  and  _96
REMARK   39  A    between atoms: _101  and  _103
REMARK   40  A    between atoms: _103  and  _104
REMARK   41  A    between atoms: _103  and  _106
REMARK   42  A    between atoms: _108  and  _110
REMARK   43  A    between atoms: _110  and  _111
REMARK   44  A    between atoms: _114  and  _116
REMARK   45  A    between atoms: _116  and  _117
REMARK   46  A    between atoms: _116  and  _119
REMARK   47  A    between atoms: _122  and  _124
REMARK   48  A    between atoms: _124  and  _125
REMARK   49  A    between atoms: _124  and  _127
REMARK   50  A    between atoms: _127  and  _128
REMARK   51  A    between atoms: _128  and  _129
REMARK   52  A    between atoms: _129  and  _130
REMARK   53  A    between atoms: _130  and  _131
REMARK   54  A    between atoms: _135  and  _137
REMARK   55  A    between atoms: _137  and  _138
REMARK   56  A    between atoms: _137  and  _140
REMARK   57  A    between atoms: _140  and  _141
REMARK   58  A    between atoms: _141  and  _142
REMARK   59  A    between atoms: _144  and  _146
REMARK   60  A    between atoms: _146  and  _147
REMARK   61  A    between atoms: _146  and  _149
REMARK   62  A    between atoms: _149  and  _150
REMARK   63  A    between atoms: _153  and  _155
REMARK   64  A    between atoms: _155  and  _156
REMARK   65  A    between atoms: _155  and  _158
REMARK   66  A    between atoms: _158  and  _159
REMARK   67  A    between atoms: _161  and  _163
REMARK   68  A    between atoms: _163  and  _164
REMARK   69  A    between atoms: _163  and  _166
REMARK   70  A    between atoms: _166  and  _167
REMARK   71  A    between atoms: _170  and  _172
REMARK   72  A    between atoms: _172  and  _173
REMARK   73  A    between atoms: _172  and  _175
REMARK   74  A    between atoms: _178  and  _180
REMARK   75  A    between atoms: _180  and  _181
REMARK   76  A    between atoms: _180  and  _183
REMARK   77  A    between atoms: _186  and  _188
REMARK   78  A    between atoms: _188  and  _189
REMARK   79  A    between atoms: _188  and  _191
REMARK   80  A    between atoms: _191  and  _192
REMARK   81  A    between atoms: _196  and  _197
REMARK   82  A    between atoms: _202  and  _204
REMARK   83  A    between atoms: _204  and  _205
REMARK   84  A    between atoms: _204  and  _207
REMARK   85  A    between atoms: _207  and  _208
REMARK   86  A    between atoms: _213  and  _214
REMARK   87  A    between atoms: _216  and  _218
REMARK   88  A    between atoms: _218  and  _219
REMARK   89  A    between atoms: _218  and  _221
REMARK   90  A    between atoms: _221  and  _222
REMARK   91  A    between atoms: _222  and  _223
REMARK   92  A    between atoms: _225  and  _227
REMARK   93  A    between atoms: _227  and  _228
REMARK   94  A    between atoms: _227  and  _230
REMARK   95  A    between atoms: _230  and  _231
REMARK   96  A    between atoms: _231  and  _232
REMARK   97  A    between atoms: _232  and  _233
REMARK   98  A    between atoms: _233  and  _234
REMARK   99  A    between atoms: _238  and  _240
REMARK  100  A    between atoms: _240  and  _241
REMARK  101  A    between atoms: _240  and  _243
REMARK  102  A    between atoms: _243  and  _244
REMARK  103  A    between atoms: _249  and  _251
REMARK  104  A    between atoms: _251  and  _252
REMARK  105  A    between atoms: _254  and  _256
REMARK  106  A    between atoms: _256  and  _257
REMARK  107  A    between atoms: _256  and  _259
REMARK  108  A    between atoms: _259  and  _260
REMARK  109  A    between atoms: _263  and  _265
REMARK  110  A    between atoms: _265  and  _266
REMARK  111  A    between atoms: _265  and  _268
REMARK  112  A    between atoms: _268  and  _269
REMARK  113  A    between atoms: _272  and  _274
REMARK  114  A    between atoms: _274  and  _275
REMARK  115  A    between atoms: _274  and  _277
REMARK  116  A    between atoms: _277  and  _278
REMARK  117  A    between atoms: _278  and  _279
REMARK  118  A    between atoms: _279  and  _280
REMARK  119  A    between atoms: _289  and  _291
REMARK  120  A    between atoms: _291  and  _292
REMARK  121  A    between atoms: _291  and  _294
REMARK  122  A    between atoms: _294  and  _295
REMARK  123  A    between atoms: _300  and  _302
REMARK  124  A    between atoms: _302  and  _303
REMARK  125  A    between atoms: _302  and  _305
REMARK  126  A    between atoms: _305  and  _306
REMARK  127  A    between atoms: _312  and  _314
REMARK  128  A    between atoms: _314  and  _315
REMARK  129  A    between atoms: _314  and  _317
REMARK  130  A    between atoms: _317  and  _318
REMARK  131  A    between atoms: _323  and  _325
REMARK  132  A    between atoms: _325  and  _326
REMARK  133  A    between atoms: _325  and  _328
REMARK  134  A    between atoms: _328  and  _329
REMARK  135  A    between atoms: _334  and  _336
REMARK  136  A    between atoms: _336  and  _337
REMARK  137  A    between atoms: _336  and  _339
REMARK  138  A    between atoms: _339  and  _340
REMARK  139  A    between atoms: _345  and  _347
REMARK  140  A    between atoms: _347  and  _348
REMARK  141  A    between atoms: _347  and  _350
REMARK  142  A    between atoms: _350  and  _351
REMARK  143  A    between atoms: _354  and  _356
REMARK  144  A    between atoms: _356  and  _357
REMARK  145  A    between atoms: _360  and  _362
REMARK  146  A    between atoms: _362  and  _363
REMARK  147  A    between atoms: _366  and  _368
REMARK  148  A    between atoms: _368  and  _369
REMARK  149  A    between atoms: _368  and  _371
REMARK  150  A    between atoms: _371  and  _372
REMARK  151  A    between atoms: _372  and  _373
REMARK  152  A    between atoms: _373  and  _374
REMARK  153  A    between atoms: _383  and  _385
REMARK  154  A    between atoms: _385  and  _386
REMARK  155  A    between atoms: _385  and  _388
REMARK  156  A    between atoms: _388  and  _389
REMARK  157  A    between atoms: _394  and  _396
REMARK  158  A    between atoms: _396  and  _397
REMARK  159  A    between atoms: _396  and  _399
REMARK  160  A    between atoms: _401  and  _403
REMARK  161  A    between atoms: _403  and  _404
REMARK  162  A    between atoms: _403  and  _406
REMARK  163  A    between atoms: _406  and  _407
REMARK  164  A    between atoms: _407  and  _408
REMARK  165  A    between atoms: _410  and  _412
REMARK  166  A    between atoms: _412  and  _413
REMARK  167  A    between atoms: _412  and  _415
REMARK  168  A    between atoms: _415  and  _416
REMARK  169  A    between atoms: _419  and  _421
REMARK  170  A    between atoms: _421  and  _422
REMARK  171  A    between atoms: _421  and  _424
REMARK  172  A    between atoms: _424  and  _425
REMARK  173  A    between atoms: _428  and  _430
REMARK  174  A    between atoms: _430  and  _431
REMARK  175  A    between atoms: _430  and  _433
REMARK  176  A    between atoms: _433  and  _434
REMARK  177  A    between atoms: _434  and  _435
REMARK  178  A    between atoms: _435  and  _436
REMARK  179  A    between atoms: _436  and  _437
REMARK  180  A    between atoms: _441  and  _443
REMARK  181  A    between atoms: _443  and  _444
REMARK  182  A    between atoms: _443  and  _446
REMARK  183  A    between atoms: _449  and  _451
REMARK  184  A    between atoms: _451  and  _452
REMARK  185  A    between atoms: _455  and  _457
REMARK  186  A    between atoms: _457  and  _458
REMARK  187  A    between atoms: _457  and  _460
REMARK  188  A    between atoms: _460  and  _461
REMARK  189  A    between atoms: _464  and  _466
REMARK  190  A    between atoms: _466  and  _467
REMARK  191  A    between atoms: _466  and  _469
REMARK  192  A    between atoms: _469  and  _470
REMARK  193  A    between atoms: _476  and  _478
REMARK  194  A    between atoms: _478  and  _479
REMARK  195  A    between atoms: _478  and  _481
REMARK  196  A    between atoms: _481  and  _482
REMARK  197  A    between atoms: _485  and  _487
REMARK  198  A    between atoms: _487  and  _488
REMARK  199  A    between atoms: _491  and  _493
REMARK  200  A    between atoms: _493  and  _494
REMARK  201  A    between atoms: _493  and  _496
REMARK  202  A    between atoms: _496  and  _497
REMARK  203  A    between atoms: _497  and  _498
REMARK  204  A    between atoms: _498  and  _499
REMARK  205  A    between atoms: _508  and  _510
REMARK  206  A    between atoms: _510  and  _511
REMARK  207  A    between atoms: _510  and  _513
REMARK  208  A    between atoms: _513  and  _514
REMARK  209  A    between atoms: _517  and  _519
REMARK  210  A    between atoms: _519  and  _520
REMARK  211  A    between atoms: _519  and  _522
REMARK  212  A    between atoms: _522  and  _523
REMARK  213  A    between atoms: _523  and  _524
REMARK  214  A    between atoms: _526  and  _528
REMARK  215  A    between atoms: _528  and  _529
REMARK  216  A    between atoms: _528  and  _531
REMARK  217  A    between atoms: _531  and  _532
REMARK  218  A    between atoms: _537  and  _538
REMARK  219  A    between atoms: _540  and  _542
REMARK  220  A    between atoms: _542  and  _543
REMARK  221  A    between atoms: _542  and  _545
REMARK  222  A    between atoms: _545  and  _546
REMARK  223  A    between atoms: _549  and  _551
REMARK  224  A    between atoms: _551  and  _552
REMARK  225  A    between atoms: _551  and  _554
REMARK  226  A    between atoms: _554  and  _555
REMARK  227  A    between atoms: _560  and  _561
REMARK  228  A    between atoms: _563  and  _565
REMARK  229  A    between atoms: _565  and  _566
REMARK  230  A    between atoms: _565  and  _568
REMARK  231  A    between atoms: _568  and  _569
REMARK  232  A    between atoms: _569  and  _570
REMARK  233  A    between atoms: _570  and  _571
REMARK  234  A    between atoms: _571  and  _572
REMARK                            x       y       z     vdW  Elec       q    Type
REMARK                         _______ _______ _______ _____ _____    ______ ____
ROOT
ATOM      1  C   GLY A   3      -3.657 -10.349  12.015  0.00  0.00    +0.243 C 
ATOM      2  N   ARG A   4      -4.400  -9.558  12.783  0.00  0.00    -0.297 N 
ATOM      3  H   ARG A   4      -5.165  -9.985  13.344  0.00  0.00    +0.150 HD
ATOM      4  O   GLY A   3      -2.751  -9.938  11.295  0.00  0.00    -0.273 OA
ENDROOT
BRANCH   2   5
ATOM      5  CA  ARG A   4      -4.188  -8.112  12.874  0.00  0.00    +0.149 C 
BRANCH   5   6
ATOM      6  C   ARG A   4      -4.501  -7.601  14.269  0.00  0.00    +0.241 C 
ATOM      7  N   GLY A   5      -3.514  -6.984  14.900  0.00  0.00    -0.296 N 
ATOM      8  H   GLY A   5      -2.565  -6.976  14.475  0.00  0.00    +0.150 HD
ATOM      9  O   ARG A   4      -5.615  -7.752  14.757  0.00  0.00    -0.273 OA
BRANCH   7  10
ATOM     10  CA  GLY A   5      -3.726  -6.324  16.163  0.00  0.00    +0.163 C 
BRANCH  10  11
ATOM     11  C   GLY A   5      -3.440  -4.840  16.027  0.00  0.00    +0.229 C 
ATOM     12  O   GLY A   5      -3.029  -4.362  14.964  0.00  0.00    -0.286 OA
ENDBRANCH  10  11
ENDBRANCH   7  10
ENDBRANCH   5   6
BRANCH   5  13
ATOM     13  CB  ARG A   4      -5.083  -7.354  11.897  0.00  0.00    +0.033 C 
BRANCH  13  14
ATOM     14  CG  ARG A   4      -4.866  -7.678  10.434  0.00  0.00    +0.045 C 
BRANCH  14  15
ATOM     15  CD  ARG A   4      -5.930  -6.991   9.575  0.00  0.00    +0.174 C 
BRANCH  15  16
ATOM     16  NE  ARG A   4      -6.435  -7.881   8.530  0.00  0.00    -0.265 N 
ATOM     17  HE  ARG A   4      -6.949  -8.736   8.824  0.00  0.00    +0.259 HD
ATOM     18  CZ  ARG A   4      -6.279  -7.666   7.230  0.00  0.00    +0.342 C 
ATOM     19  NH2 ARG A   4      -5.642  -6.575   6.816  0.00  0.00    -0.292 N 
ATOM     20 HH21 ARG A   4      -5.269  -5.896   7.510  0.00  0.00    +0.255 HD
ATOM     21 HH22 ARG A   4      -5.516  -6.401   5.798  0.00  0.00    +0.255 HD
ATOM     22  NH1 ARG A   4      -6.765  -8.538   6.349  0.00  0.00    -0.292 N 
ATOM     23 HH11 ARG A   4      -7.266  -9.387   6.680  0.00  0.00    +0.255 HD
ATOM     24 HH12 ARG A   4      -6.643  -8.370   5.330  0.00  0.00    +0.255 HD
ENDBRANCH  15  16
ENDBRANCH  14  15
ENDBRANCH  13  14
ENDBRANCH   5  13
ENDBRANCH   2   5
BRANCH   1  25
ATOM     25  CA  GLY A   3      -3.981 -11.819  12.057  0.00  0.00    +0.176 C 
BRANCH  25  28
ATOM     26  C   ILE A   2      -3.887 -13.687  10.508  0.00  0.00    +0.241 C 
ATOM     27  O   ILE A   2      -4.643 -14.380  11.199  0.00  0.00    -0.273 OA
ATOM     28  N   GLY A   3      -3.509 -12.459  10.848  0.00  0.00    -0.295 N 
ATOM     29  H   GLY A   3      -2.854 -11.943  10.226  0.00  0.00    +0.150 HD
BRANCH  26  30
ATOM     30  CA  ILE A   2      -3.314 -14.229   9.202  0.00  0.00    +0.148 C 
BRANCH  30  32
ATOM     31  C   VAL A   1      -2.994 -12.825   7.267  0.00  0.00    +0.238 C 
ATOM     32  N   ILE A   2      -2.576 -13.218   8.460  0.00  0.00    -0.297 N 
ATOM     33  H   ILE A   2      -1.715 -12.802   8.869  0.00  0.00    +0.150 HD
ATOM     34  O   VAL A   1      -4.007 -13.283   6.737  0.00  0.00    -0.274 OA
BRANCH  31  35
ATOM     35  CA  VAL A   1      -2.148 -11.765   6.564  0.00  0.00    +0.145 C 
BRANCH  35  36
ATOM     36  CB  VAL A   1      -2.899 -10.439   6.528  0.00  0.00    +0.025 C 
ATOM     37  CG2 VAL A   1      -3.562 -10.163   7.871  0.00  0.00    +0.002 C 
ATOM     38  CG1 VAL A   1      -1.934  -9.318   6.139  0.00  0.00    +0.002 C 
ENDBRANCH  35  36
BRANCH  35  39
ATOM     39  N   VAL A   1      -1.791 -12.208   5.222  0.00  0.00    -0.238 NA
ATOM     40  H   VAL A   1      -2.233 -11.760   4.394  0.00  0.00    +0.142 HD
ENDBRANCH  35  39
ENDBRANCH  31  35
ENDBRANCH  30  32
BRANCH  30  41
ATOM     41  CB  ILE A   2      -2.436 -15.459   9.521  0.00  0.00    +0.027 C 
ATOM     42  CG2 ILE A   2      -1.931 -16.097   8.237  0.00  0.00    +0.002 C 
BRANCH  41  43
ATOM     43  CG1 ILE A   2      -1.277 -15.057  10.445  0.00  0.00    +0.002 C 
ATOM     44  CD1 ILE A   2      -0.409 -16.235  10.853  0.00  0.00    +0.000 C 
ENDBRANCH  41  43
ENDBRANCH  30  41
ENDBRANCH  26  30
ENDBRANCH  25  28
ENDBRANCH   1  25
TORSDOF 17
REMARK  Name = ../refined-set-2016/4gg7/4gg7_pocket.pdb
REMARK  234 active torsions:
REMARK  status: ('A' for Active; 'I' for Inactive)
REMARK    1  A    between atoms: _1  and  _3
REMARK    2  A    between atoms: _3  and  _4
REMARK    3  A    between atoms: _3  and  _6
REMARK    4  A    between atoms: _9  and  _11
REMARK    5  A    between atoms: _11  and  _12
REMARK    6  A    between atoms: _11  and  _14
REMARK    7  A    between atoms: _14  and  _15
REMARK    8  A    between atoms: _18  and  _20
REMARK    9  A    between atoms: _20  and  _21
REMARK   10  A    between atoms: _23  and  _25
REMARK   11  A    between atoms: _25  and  _26
REMARK   12  A    between atoms: _25  and  _28
REMARK   13  A    between atoms: _28  and  _29
REMARK   14  A    between atoms: _29  and  _30
REMARK   15  A    between atoms: _30  and  _31
REMARK   16  A    between atoms: _40  and  _42
REMARK   17  A    between atoms: _42  and  _43
REMARK   18  A    between atoms: _45  and  _47
REMARK   19  A    between atoms: _47  and  _48
REMARK   20  A    between atoms: _50  and  _52
REMARK   21  A    between atoms: _52  and  _53
REMARK   22  A    between atoms: _52  and  _55
REMARK   23  A    between atoms: _57  and  _59
REMARK   24  A    between atoms: _59  and  _60
REMARK   25  A    between atoms: _59  and  _62
REMARK   26  A    between atoms: _65  and  _67
REMARK   27  A    between atoms: _67  and  _68
REMARK   28  A    between atoms: _67  and  _70
REMARK   29  A    between atoms: _70  and  _71
REMARK   30  A    between atoms: _76  and  _77
REMARK   31  A    between atoms: _79  and  _81
REMARK   32  A    between atoms: _81  and  _82
REMARK   33  A    between atoms: _81  and  _84
REMARK   34  A    between atoms: _84  and  _85
REMARK   35  A    between atoms: _90  and  _92
REMARK   36  A    between atoms: _92  and  _93
REMARK   37  A    between atoms: _92  and  _95
REMARK   38  A    between atoms: _95  and  _96
REMARK   39  A    between atoms: _101  and  _103
REMARK   40  A    between atoms: _103  and  _104
REMARK   41  A    between atoms: _103  and  _106
REMARK   42  A    between atoms: _108  and  _110
REMARK   43  A    between atoms: _110  and  _111
REMARK   44  A    between atoms: _114  and  _116
REMARK   45  A    between atoms: _116  and  _117
REMARK   46  A    between atoms: _116  and  _119
REMARK   47  A    between atoms: _122  and  _124
REMARK   48  A    between atoms: _124  and  _125
REMARK   49  A    between atoms: _124  and  _127
REMARK   50  A    between atoms: _127  and  _128
REMARK   51  A    between atoms: _128  and  _129
REMARK   52  A    between atoms: _129  and  _130
REMARK   53  A    between atoms: _130  and  _131
REMARK   54  A    between atoms: _135  and  _137
REMARK   55  A    between atoms: _137  and  _138
REMARK   56  A    between atoms: _137  and  _140
REMARK   57  A    between atoms: _140  and  _141
REMARK   58  A    between atoms: _141  and  _142
REMARK   59  A    between atoms: _144  and  _146
REMARK   60  A    between atoms: _146  and  _147
REMARK   61  A    between atoms: _146  and  _149
REMARK   62  A    between atoms: _149  and  _150
REMARK   63  A    between atoms: _153  and  _155
REMARK   64  A    between atoms: _155  and  _156
REMARK   65  A    between atoms: _155  and  _158
REMARK   66  A    between atoms: _158  and  _159
REMARK   67  A    between atoms: _161  and  _163
REMARK   68  A    between atoms: _163  and  _164
REMARK   69  A    between atoms: _163  and  _166
REMARK   70  A    between atoms: _166  and  _167
REMARK   71  A    between atoms: _170  and  _172
REMARK   72  A    between atoms: _172  and  _173
REMARK   73  A    between atoms: _172  and  _175
REMARK   74  A    between atoms: _178  and  _180
REMARK   75  A    between atoms: _180  and  _181
REMARK   76  A    between atoms: _180  and  _183
REMARK   77  A    between atoms: _186  and  _188
REMARK   78  A    between atoms: _188  and  _189
REMARK   79  A    between atoms: _188  and  _191
REMARK   80  A    between atoms: _191  and  _192
REMARK   81  A    between atoms: _196  and  _197
REMARK   82  A    between atoms: _202  and  _204
REMARK   83  A    between atoms: _204  and  _205
REMARK   84  A    between atoms: _204  and  _207
REMARK   85  A    between atoms: _207  and  _208
REMARK   86  A    between atoms: _213  and  _214
REMARK   87  A    between atoms: _216  and  _218
REMARK   88  A    between atoms: _218  and  _219
REMARK   89  A    between atoms: _218  and  _221
REMARK   90  A    between atoms: _221  and  _222
REMARK   91  A    between atoms: _222  and  _223
REMARK   92  A    between atoms: _225  and  _227
REMARK   93  A    between atoms: _227  and  _228
REMARK   94  A    between atoms: _227  and  _230
REMARK   95  A    between atoms: _230  and  _231
REMARK   96  A    between atoms: _231  and  _232
REMARK   97  A    between atoms: _232  and  _233
REMARK   98  A    between atoms: _233  and  _234
REMARK   99  A    between atoms: _238  and  _240
REMARK  100  A    between atoms: _240  and  _241
REMARK  101  A    between atoms: _240  and  _243
REMARK  102  A    between atoms: _243  and  _244
REMARK  103  A    between atoms: _249  and  _251
REMARK  104  A    between atoms: _251  and  _252
REMARK  105  A    between atoms: _254  and  _256
REMARK  106  A    between atoms: _256  and  _257
REMARK  107  A    between atoms: _256  and  _259
REMARK  108  A    between atoms: _259  and  _260
REMARK  109  A    between atoms: _263  and  _265
REMARK  110  A    between atoms: _265  and  _266
REMARK  111  A    between atoms: _265  and  _268
REMARK  112  A    between atoms: _268  and  _269
REMARK  113  A    between atoms: _272  and  _274
REMARK  114  A    between atoms: _274  and  _275
REMARK  115  A    between atoms: _274  and  _277
REMARK  116  A    between atoms: _277  and  _278
REMARK  117  A    between atoms: _278  and  _279
REMARK  118  A    between atoms: _279  and  _280
REMARK  119  A    between atoms: _289  and  _291
REMARK  120  A    between atoms: _291  and  _292
REMARK  121  A    between atoms: _291  and  _294
REMARK  122  A    between atoms: _294  and  _295
REMARK  123  A    between atoms: _300  and  _302
REMARK  124  A    between atoms: _302  and  _303
REMARK  125  A    between atoms: _302  and  _305
REMARK  126  A    between atoms: _305  and  _306
REMARK  127  A    between atoms: _312  and  _314
REMARK  128  A    between atoms: _314  and  _315
REMARK  129  A    between atoms: _314  and  _317
REMARK  130  A    between atoms: _317  and  _318
REMARK  131  A    between atoms: _323  and  _325
REMARK  132  A    between atoms: _325  and  _326
REMARK  133  A    between atoms: _325  and  _328
REMARK  134  A    between atoms: _328  and  _329
REMARK  135  A    between atoms: _334  and  _336
REMARK  136  A    between atoms: _336  and  _337
REMARK  137  A    between atoms: _336  and  _339
REMARK  138  A    between atoms: _339  and  _340
REMARK  139  A    between atoms: _345  and  _347
REMARK  140  A    between atoms: _347  and  _348
REMARK  141  A    between atoms: _347  and  _350
REMARK  142  A    between atoms: _350  and  _351
REMARK  143  A    between atoms: _354  and  _356
REMARK  144  A    between atoms: _356  and  _357
REMARK  145  A    between atoms: _360  and  _362
REMARK  146  A    between atoms: _362  and  _363
REMARK  147  A    between atoms: _366  and  _368
REMARK  148  A    between atoms: _368  and  _369
REMARK  149  A    between atoms: _368  and  _371
REMARK  150  A    between atoms: _371  and  _372
REMARK  151  A    between atoms: _372  and  _373
REMARK  152  A    between atoms: _373  and  _374
REMARK  153  A    between atoms: _383  and  _385
REMARK  154  A    between atoms: _385  and  _386
REMARK  155  A    between atoms: _385  and  _388
REMARK  156  A    between atoms: _388  and  _389
REMARK  157  A    between atoms: _394  and  _396
REMARK  158  A    between atoms: _396  and  _397
REMARK  159  A    between atoms: _396  and  _399
REMARK  160  A    between atoms: _401  and  _403
REMARK  161  A    between atoms: _403  and  _404
REMARK  162  A    between atoms: _403  and  _406
REMARK  163  A    between atoms: _406  and  _407
REMARK  164  A    between atoms: _407  and  _408
REMARK  165  A    between atoms: _410  and  _412
REMARK  166  A    between atoms: _412  and  _413
REMARK  167  A    between atoms: _412  and  _415
REMARK  168  A    between atoms: _415  and  _416
REMARK  169  A    between atoms: _419  and  _421
REMARK  170  A    between atoms: _421  and  _422
REMARK  171  A    between atoms: _421  and  _424
REMARK  172  A    between atoms: _424  and  _425
REMARK  173  A    between atoms: _428  and  _430
REMARK  174  A    between atoms: _430  and  _431
REMARK  175  A    between atoms: _430  and  _433
REMARK  176  A    between atoms: _433  and  _434
REMARK  177  A    between atoms: _434  and  _435
REMARK  178  A    between atoms: _435  and  _436
REMARK  179  A    between atoms: _436  and  _437
REMARK  180  A    between atoms: _441  and  _443
REMARK  181  A    between atoms: _443  and  _444
REMARK  182  A    between atoms: _443  and  _446
REMARK  183  A    between atoms: _449  and  _451
REMARK  184  A    between atoms: _451  and  _452
REMARK  185  A    between atoms: _455  and  _457
REMARK  186  A    between atoms: _457  and  _458
REMARK  187  A    between atoms: _457  and  _460
REMARK  188  A    between atoms: _460  and  _461
REMARK  189  A    between atoms: _464  and  _466
REMARK  190  A    between atoms: _466  and  _467
REMARK  191  A    between atoms: _466  and  _469
REMARK  192  A    between atoms: _469  and  _470
REMARK  193  A    between atoms: _476  and  _478
REMARK  194  A    between atoms: _478  and  _479
REMARK  195  A    between atoms: _478  and  _481
REMARK  196  A    between atoms: _481  and  _482
REMARK  197  A    between atoms: _485  and  _487
REMARK  198  A    between atoms: _487  and  _488
REMARK  199  A    between atoms: _491  and  _493
REMARK  200  A    between atoms: _493  and  _494
REMARK  201  A    between atoms: _493  and  _496
REMARK  202  A    between atoms: _496  and  _497
REMARK  203  A    between atoms: _497  and  _498
REMARK  204  A    between atoms: _498  and  _499
REMARK  205  A    between atoms: _508  and  _510
REMARK  206  A    between atoms: _510  and  _511
REMARK  207  A    between atoms: _510  and  _513
REMARK  208  A    between atoms: _513  and  _514
REMARK  209  A    between atoms: _517  and  _519
REMARK  210  A    between atoms: _519  and  _520
REMARK  211  A    between atoms: _519  and  _522
REMARK  212  A    between atoms: _522  and  _523
REMARK  213  A    between atoms: _523  and  _524
REMARK  214  A    between atoms: _526  and  _528
REMARK  215  A    between atoms: _528  and  _529
REMARK  216  A    between atoms: _528  and  _531
REMARK  217  A    between atoms: _531  and  _532
REMARK  218  A    between atoms: _537  and  _538
REMARK  219  A    between atoms: _540  and  _542
REMARK  220  A    between atoms: _542  and  _543
REMARK  221  A    between atoms: _542  and  _545
REMARK  222  A    between atoms: _545  and  _546
REMARK  223  A    between atoms: _549  and  _551
REMARK  224  A    between atoms: _551  and  _552
REMARK  225  A    between atoms: _551  and  _554
REMARK  226  A    between atoms: _554  and  _555
REMARK  227  A    between atoms: _560  and  _561
REMARK  228  A    between atoms: _563  and  _565
REMARK  229  A    between atoms: _565  and  _566
REMARK  230  A    between atoms: _565  and  _568
REMARK  231  A    between atoms: _568  and  _569
REMARK  232  A    between atoms: _569  and  _570
REMARK  233  A    between atoms: _570  and  _571
REMARK  234  A    between atoms: _571  and  _572
REMARK                            x       y       z     vdW  Elec       q    Type
REMARK                         _______ _______ _______ _____ _____    ______ ____
ROOT
ATOM      1  CA  TYR A   4       1.930 -12.951   8.579  0.00  0.00    +0.153 C 
ENDROOT
BRANCH   1   3
ATOM      2  C   VAL A   3       0.641 -11.741  10.279  0.00  0.00    +0.241 C 
ATOM      3  N   TYR A   4       1.781 -12.302   9.886  0.00  0.00    -0.297 N 
ATOM      4  H   TYR A   4       2.598 -12.280  10.530  0.00  0.00    +0.150 HD
ATOM      5  O   VAL A   3      -0.407 -11.841   9.650  0.00  0.00    -0.273 OA
BRANCH   2   6
ATOM      6  CA  VAL A   3       0.689 -10.979  11.595  0.00  0.00    +0.149 C 
BRANCH   6   9
ATOM      7  C   CYS A   2       0.686  -8.543  11.628  0.00  0.00    +0.242 C 
ATOM      8  O   CYS A   2       1.858  -8.477  11.987  0.00  0.00    -0.273 OA
ATOM      9  N   VAL A   3       0.035  -9.690  11.451  0.00  0.00    -0.297 N 
ATOM     10  H   VAL A   3      -0.974  -9.663  11.202  0.00  0.00    +0.150 HD
BRANCH   7  11
ATOM     11  CA  CYS A   2      -0.112  -7.279  11.344  0.00  0.00    +0.160 C 
BRANCH  11  14
ATOM     12  C   GLY A   1       0.116  -5.806  13.285  0.00  0.00    +0.240 C 
ATOM     13  O   GLY A   1      -0.611  -6.499  13.993  0.00  0.00    -0.274 OA
ATOM     14  N   CYS A   2       0.414  -6.100  12.021  0.00  0.00    -0.296 N 
ATOM     15  H   CYS A   2       1.047  -5.463  11.496  0.00  0.00    +0.150 HD
BRANCH  12  16
ATOM     16  CA  GLY A   1       0.728  -4.539  13.827  0.00  0.00    +0.169 C 
BRANCH  16  17
ATOM     17  N   GLY A   1       0.214  -4.126  15.118  0.00  0.00    -0.236 NA
ATOM     18  H   GLY A   1      -0.754  -4.380  15.401  0.00  0.00    +0.142 HD
ENDBRANCH  16  17
ENDBRANCH  12  16
ENDBRANCH  11  14
BRANCH  11  19
ATOM     19  CB  CYS A   2      -0.156  -7.050   9.837  0.00  0.00    +0.098 C 
ATOM     20  SG  CYS A   2      -1.497  -6.009   9.308  0.00  0.00    -0.080 S 
ENDBRANCH  11  19
ENDBRANCH   7  11
ENDBRANCH   6   9
BRANCH   6  21
ATOM     21  CB  VAL A   3       0.045 -11.832  12.706  0.00  0.00    +0.027 C 
ATOM     22  CG2 VAL A   3       0.114 -11.102  14.041  0.00  0.00    +0.002 C 
ATOM     23  CG1 VAL A   3       0.734 -13.185  12.811  0.00  0.00    +0.002 C 
ENDBRANCH   6  21
ENDBRANCH   2   6
ENDBRANCH   1   3
BRANCH   1  24
ATOM     24  C   TYR A   4       2.439 -14.387   8.677  0.00  0.00    +0.241 C 
ATOM     25  O   TYR A   4       3.134 -14.741   9.622  0.00  0.00    -0.273 OA
ATOM     26  N   HIS A   5       2.093 -15.206   7.691  0.00  0.00    -0.298 N 
ATOM     27  H   HIS A   5       1.348 -14.914   7.026  0.00  0.00    +0.150 HD
BRANCH  26  28
ATOM     28  CA  HIS A   5       2.731 -16.503   7.518  0.00  0.00    +0.143 C 
BRANCH  28  29
ATOM     29  C   HIS A   5       4.199 -16.249   7.274  0.00  0.00    +0.227 C 
ATOM     30  O   HIS A   5       4.563 -15.245   6.667  0.00  0.00    -0.286 OA
ENDBRANCH  28  29
BRANCH  28  31
ATOM     31  CB  HIS A   5       2.172 -17.205   6.291  0.00  0.00    +0.075 C 
BRANCH  31  32
ATOM     32  CG  HIS A   5       1.391 -18.439   6.597  0.00  0.00    +0.082 A 
ATOM     33  CD2 HIS A   5       1.788 -19.663   7.014  0.00  0.00    +0.115 A 
ATOM     34  NE2 HIS A   5       0.659 -20.438   7.121  0.00  0.00    -0.221 NA
ATOM     35  CE1 HIS A   5      -0.392 -19.718   6.776  0.00  0.00    +0.199 A 
ATOM     36  ND1 HIS A   5       0.023 -18.506   6.453  0.00  0.00    -0.227 NA
ENDBRANCH  31  32
ENDBRANCH  28  31
ENDBRANCH  26  28
ENDBRANCH   1  24
BRANCH   1  37
ATOM     37  CB  TYR A   4       2.915 -12.153   7.723  0.00  0.00    +0.055 C 
BRANCH  37  38
ATOM     38  CG  TYR A   4       2.646 -10.663   7.657  0.00  0.00    -0.020 A 
ATOM     39  CD2 TYR A   4       3.267  -9.788   8.534  0.00  0.00    -0.001 A 
ATOM     40  CE2 TYR A   4       3.036  -8.416   8.465  0.00  0.00    +0.036 A 
ATOM     41  CZ  TYR A   4       2.173  -7.914   7.512  0.00  0.00    +0.134 A 
ATOM     42  CE1 TYR A   4       1.542  -8.765   6.630  0.00  0.00    +0.036 A 
ATOM     43  CD1 TYR A   4       1.779 -10.132   6.708  0.00  0.00    -0.001 A 
BRANCH  41  44
ATOM     44  OH  TYR A   4       1.941  -6.554   7.446  0.00  0.00    -0.506 OA
ATOM     45  HH  TYR A   4       2.470  -6.096   8.146  0.00  0.00    +0.292 HD
ENDBRANCH  41  44
ENDBRANCH  37  38
ENDBRANCH   1  37
TORSDOF 17
REMARK  Name = ../refined-set-2016/4gg7/4gg7_pocket.pdb
REMARK  234 active torsions:
REMARK  status: ('A' for Active; 'I' for Inactive)
REMARK    1  A    between atoms: _1  and  _3
REMARK    2  A    between atoms: _3  and  _4
REMARK    3  A    between atoms: _3  and  _6
REMARK    4  A    between atoms: _9  and  _11
REMARK    5  A    between atoms: _11  and  _12
REMARK    6  A    between atoms: _11  and  _14
REMARK    7  A    between atoms: _14  and  _15
REMARK    8  A    between atoms: _18  and  _20
REMARK    9  A    between atoms: _20  and  _21
REMARK   10  A    between atoms: _23  and  _25
REMARK   11  A    between atoms: _25  and  _26
REMARK   12  A    between atoms: _25  and  _28
REMARK   13  A    between atoms: _28  and  _29
REMARK   14  A    between atoms: _29  and  _30
REMARK   15  A    between atoms: _30  and  _31
REMARK   16  A    between atoms: _40  and  _42
REMARK   17  A    between atoms: _42  and  _43
REMARK   18  A    between atoms: _45  and  _47
REMARK   19  A    between atoms: _47  and  _48
REMARK   20  A    between atoms: _50  and  _52
REMARK   21  A    between atoms: _52  and  _53
REMARK   22  A    between atoms: _52  and  _55
REMARK   23  A    between atoms: _57  and  _59
REMARK   24  A    between atoms: _59  and  _60
REMARK   25  A    between atoms: _59  and  _62
REMARK   26  A    between atoms: _65  and  _67
REMARK   27  A    between atoms: _67  and  _68
REMARK   28  A    between atoms: _67  and  _70
REMARK   29  A    between atoms: _70  and  _71
REMARK   30  A    between atoms: _76  and  _77
REMARK   31  A    between atoms: _79  and  _81
REMARK   32  A    between atoms: _81  and  _82
REMARK   33  A    between atoms: _81  and  _84
REMARK   34  A    between atoms: _84  and  _85
REMARK   35  A    between atoms: _90  and  _92
REMARK   36  A    between atoms: _92  and  _93
REMARK   37  A    between atoms: _92  and  _95
REMARK   38  A    between atoms: _95  and  _96
REMARK   39  A    between atoms: _101  and  _103
REMARK   40  A    between atoms: _103  and  _104
REMARK   41  A    between atoms: _103  and  _106
REMARK   42  A    between atoms: _108  and  _110
REMARK   43  A    between atoms: _110  and  _111
REMARK   44  A    between atoms: _114  and  _116
REMARK   45  A    between atoms: _116  and  _117
REMARK   46  A    between atoms: _116  and  _119
REMARK   47  A    between atoms: _122  and  _124
REMARK   48  A    between atoms: _124  and  _125
REMARK   49  A    between atoms: _124  and  _127
REMARK   50  A    between atoms: _127  and  _128
REMARK   51  A    between atoms: _128  and  _129
REMARK   52  A    between atoms: _129  and  _130
REMARK   53  A    between atoms: _130  and  _131
REMARK   54  A    between atoms: _135  and  _137
REMARK   55  A    between atoms: _137  and  _138
REMARK   56  A    between atoms: _137  and  _140
REMARK   57  A    between atoms: _140  and  _141
REMARK   58  A    between atoms: _141  and  _142
REMARK   59  A    between atoms: _144  and  _146
REMARK   60  A    between atoms: _146  and  _147
REMARK   61  A    between atoms: _146  and  _149
REMARK   62  A    between atoms: _149  and  _150
REMARK   63  A    between atoms: _153  and  _155
REMARK   64  A    between atoms: _155  and  _156
REMARK   65  A    between atoms: _155  and  _158
REMARK   66  A    between atoms: _158  and  _159
REMARK   67  A    between atoms: _161  and  _163
REMARK   68  A    between atoms: _163  and  _164
REMARK   69  A    between atoms: _163  and  _166
REMARK   70  A    between atoms: _166  and  _167
REMARK   71  A    between atoms: _170  and  _172
REMARK   72  A    between atoms: _172  and  _173
REMARK   73  A    between atoms: _172  and  _175
REMARK   74  A    between atoms: _178  and  _180
REMARK   75  A    between atoms: _180  and  _181
REMARK   76  A    between atoms: _180  and  _183
REMARK   77  A    between atoms: _186  and  _188
REMARK   78  A    between atoms: _188  and  _189
REMARK   79  A    between atoms: _188  and  _191
REMARK   80  A    between atoms: _191  and  _192
REMARK   81  A    between atoms: _196  and  _197
REMARK   82  A    between atoms: _202  and  _204
REMARK   83  A    between atoms: _204  and  _205
REMARK   84  A    between atoms: _204  and  _207
REMARK   85  A    between atoms: _207  and  _208
REMARK   86  A    between atoms: _213  and  _214
REMARK   87  A    between atoms: _216  and  _218
REMARK   88  A    between atoms: _218  and  _219
REMARK   89  A    between atoms: _218  and  _221
REMARK   90  A    between atoms: _221  and  _222
REMARK   91  A    between atoms: _222  and  _223
REMARK   92  A    between atoms: _225  and  _227
REMARK   93  A    between atoms: _227  and  _228
REMARK   94  A    between atoms: _227  and  _230
REMARK   95  A    between atoms: _230  and  _231
REMARK   96  A    between atoms: _231  and  _232
REMARK   97  A    between atoms: _232  and  _233
REMARK   98  A    between atoms: _233  and  _234
REMARK   99  A    between atoms: _238  and  _240
REMARK  100  A    between atoms: _240  and  _241
REMARK  101  A    between atoms: _240  and  _243
REMARK  102  A    between atoms: _243  and  _244
REMARK  103  A    between atoms: _249  and  _251
REMARK  104  A    between atoms: _251  and  _252
REMARK  105  A    between atoms: _254  and  _256
REMARK  106  A    between atoms: _256  and  _257
REMARK  107  A    between atoms: _256  and  _259
REMARK  108  A    between atoms: _259  and  _260
REMARK  109  A    between atoms: _263  and  _265
REMARK  110  A    between atoms: _265  and  _266
REMARK  111  A    between atoms: _265  and  _268
REMARK  112  A    between atoms: _268  and  _269
REMARK  113  A    between atoms: _272  and  _274
REMARK  114  A    between atoms: _274  and  _275
REMARK  115  A    between atoms: _274  and  _277
REMARK  116  A    between atoms: _277  and  _278
REMARK  117  A    between atoms: _278  and  _279
REMARK  118  A    between atoms: _279  and  _280
REMARK  119  A    between atoms: _289  and  _291
REMARK  120  A    between atoms: _291  and  _292
REMARK  121  A    between atoms: _291  and  _294
REMARK  122  A    between atoms: _294  and  _295
REMARK  123  A    between atoms: _300  and  _302
REMARK  124  A    between atoms: _302  and  _303
REMARK  125  A    between atoms: _302  and  _305
REMARK  126  A    between atoms: _305  and  _306
REMARK  127  A    between atoms: _312  and  _314
REMARK  128  A    between atoms: _314  and  _315
REMARK  129  A    between atoms: _314  and  _317
REMARK  130  A    between atoms: _317  and  _318
REMARK  131  A    between atoms: _323  and  _325
REMARK  132  A    between atoms: _325  and  _326
REMARK  133  A    between atoms: _325  and  _328
REMARK  134  A    between atoms: _328  and  _329
REMARK  135  A    between atoms: _334  and  _336
REMARK  136  A    between atoms: _336  and  _337
REMARK  137  A    between atoms: _336  and  _339
REMARK  138  A    between atoms: _339  and  _340
REMARK  139  A    between atoms: _345  and  _347
REMARK  140  A    between atoms: _347  and  _348
REMARK  141  A    between atoms: _347  and  _350
REMARK  142  A    between atoms: _350  and  _351
REMARK  143  A    between atoms: _354  and  _356
REMARK  144  A    between atoms: _356  and  _357
REMARK  145  A    between atoms: _360  and  _362
REMARK  146  A    between atoms: _362  and  _363
REMARK  147  A    between atoms: _366  and  _368
REMARK  148  A    between atoms: _368  and  _369
REMARK  149  A    between atoms: _368  and  _371
REMARK  150  A    between atoms: _371  and  _372
REMARK  151  A    between atoms: _372  and  _373
REMARK  152  A    between atoms: _373  and  _374
REMARK  153  A    between atoms: _383  and  _385
REMARK  154  A    between atoms: _385  and  _386
REMARK  155  A    between atoms: _385  and  _388
REMARK  156  A    between atoms: _388  and  _389
REMARK  157  A    between atoms: _394  and  _396
REMARK  158  A    between atoms: _396  and  _397
REMARK  159  A    between atoms: _396  and  _399
REMARK  160  A    between atoms: _401  and  _403
REMARK  161  A    between atoms: _403  and  _404
REMARK  162  A    between atoms: _403  and  _406
REMARK  163  A    between atoms: _406  and  _407
REMARK  164  A    between atoms: _407  and  _408
REMARK  165  A    between atoms: _410  and  _412
REMARK  166  A    between atoms: _412  and  _413
REMARK  167  A    between atoms: _412  and  _415
REMARK  168  A    between atoms: _415  and  _416
REMARK  169  A    between atoms: _419  and  _421
REMARK  170  A    between atoms: _421  and  _422
REMARK  171  A    between atoms: _421  and  _424
REMARK  172  A    between atoms: _424  and  _425
REMARK  173  A    between atoms: _428  and  _430
REMARK  174  A    between atoms: _430  and  _431
REMARK  175  A    between atoms: _430  and  _433
REMARK  176  A    between atoms: _433  and  _434
REMARK  177  A    between atoms: _434  and  _435
REMARK  178  A    between atoms: _435  and  _436
REMARK  179  A    between atoms: _436  and  _437
REMARK  180  A    between atoms: _441  and  _443
REMARK  181  A    between atoms: _443  and  _444
REMARK  182  A    between atoms: _443  and  _446
REMARK  183  A    between atoms: _449  and  _451
REMARK  184  A    between atoms: _451  and  _452
REMARK  185  A    between atoms: _455  and  _457
REMARK  186  A    between atoms: _457  and  _458
REMARK  187  A    between atoms: _457  and  _460
REMARK  188  A    between atoms: _460  and  _461
REMARK  189  A    between atoms: _464  and  _466
REMARK  190  A    between atoms: _466  and  _467
REMARK  191  A    between atoms: _466  and  _469
REMARK  192  A    between atoms: _469  and  _470
REMARK  193  A    between atoms: _476  and  _478
REMARK  194  A    between atoms: _478  and  _479
REMARK  195  A    between atoms: _478  and  _481
REMARK  196  A    between atoms: _481  and  _482
REMARK  197  A    between atoms: _485  and  _487
REMARK  198  A    between atoms: _487  and  _488
REMARK  199  A    between atoms: _491  and  _493
REMARK  200  A    between atoms: _493  and  _494
REMARK  201  A    between atoms: _493  and  _496
REMARK  202  A    between atoms: _496  and  _497
REMARK  203  A    between atoms: _497  and  _498
REMARK  204  A    between atoms: _498  and  _499
REMARK  205  A    between atoms: _508  and  _510
REMARK  206  A    between atoms: _510  and  _511
REMARK  207  A    between atoms: _510  and  _513
REMARK  208  A    between atoms: _513  and  _514
REMARK  209  A    between atoms: _517  and  _519
REMARK  210  A    between atoms: _519  and  _520
REMARK  211  A    between atoms: _519  and  _522
REMARK  212  A    between atoms: _522  and  _523
REMARK  213  A    between atoms: _523  and  _524
REMARK  214  A    between atoms: _526  and  _528
REMARK  215  A    between atoms: _528  and  _529
REMARK  216  A    between atoms: _528  and  _531
REMARK  217  A    between atoms: _531  and  _532
REMARK  218  A    between atoms: _537  and  _538
REMARK  219  A    between atoms: _540  and  _542
REMARK  220  A    between atoms: _542  and  _543
REMARK  221  A    between atoms: _542  and  _545
REMARK  222  A    between atoms: _545  and  _546
REMARK  223  A    between atoms: _549  and  _551
REMARK  224  A    between atoms: _551  and  _552
REMARK  225  A    between atoms: _551  and  _554
REMARK  226  A    between atoms: _554  and  _555
REMARK  227  A    between atoms: _560  and  _561
REMARK  228  A    between atoms: _563  and  _565
REMARK  229  A    between atoms: _565  and  _566
REMARK  230  A    between atoms: _565  and  _568
REMARK  231  A    between atoms: _568  and  _569
REMARK  232  A    between atoms: _569  and  _570
REMARK  233  A    between atoms: _570  and  _571
REMARK  234  A    between atoms: _571  and  _572
REMARK                            x       y       z     vdW  Elec       q    Type
REMARK                         _______ _______ _______ _____ _____    ______ ____
ROOT
ATOM      1  C   ALA A   3       4.598 -15.360  12.822  0.00  0.00    +0.241 C 
ATOM      2  O   ALA A   3       5.271 -15.286  13.851  0.00  0.00    -0.273 OA
ATOM      3  N   VAL A   4       4.578 -14.381  11.927  0.00  0.00    -0.297 N 
ATOM      4  H   VAL A   4       3.941 -14.432  11.106  0.00  0.00    +0.150 HD
ENDROOT
BRANCH   1   5
ATOM      5  CA  ALA A   3       3.762 -16.614  12.510  0.00  0.00    +0.149 C 
ATOM      6  CB  ALA A   3       2.610 -16.754  13.493  0.00  0.00    +0.031 C 
BRANCH   5   8
ATOM      7  C   CYS A   2       4.975 -18.489  11.503  0.00  0.00    +0.242 C 
ATOM      8  N   ALA A   3       4.618 -17.791  12.573  0.00  0.00    -0.297 N 
ATOM      9  H   ALA A   3       4.967 -18.099  13.503  0.00  0.00    +0.150 HD
ATOM     10  O   CYS A   2       4.463 -18.353  10.392  0.00  0.00    -0.273 OA
BRANCH   7  11
ATOM     11  CA  CYS A   2       6.053 -19.527  11.754  0.00  0.00    +0.160 C 
BRANCH  11  14
ATOM     12  C   HIS A   1       6.232 -21.715  10.888  0.00  0.00    +0.239 C 
ATOM     13  O   HIS A   1       6.180 -22.141  12.031  0.00  0.00    -0.274 OA
ATOM     14  N   CYS A   2       6.239 -20.422  10.635  0.00  0.00    -0.296 N 
ATOM     15  H   CYS A   2       6.373 -20.060   9.669  0.00  0.00    +0.150 HD
BRANCH  12  16
ATOM     16  CA  HIS A   1       6.256 -22.676   9.711  0.00  0.00    +0.151 C 
BRANCH  16  17
ATOM     17  N   HIS A   1       7.354 -23.623   9.809  0.00  0.00    -0.238 NA
ATOM     18  H   HIS A   1       7.117 -24.622   9.976  0.00  0.00    +0.142 HD
ENDBRANCH  16  17
BRANCH  16  19
ATOM     19  CB  HIS A   1       4.953 -23.455   9.741  0.00  0.00    +0.074 C 
BRANCH  19  20
ATOM     20  CG  HIS A   1       4.109 -23.271   8.528  0.00  0.00    +0.082 A 
ATOM     21  CD2 HIS A   1       3.099 -22.406   8.266  0.00  0.00    +0.115 A 
ATOM     22  NE2 HIS A   1       2.661 -22.675   6.992  0.00  0.00    -0.221 NA
ATOM     23  CE1 HIS A   1       3.376 -23.668   6.491  0.00  0.00    +0.199 A 
ATOM     24  ND1 HIS A   1       4.257 -24.048   7.399  0.00  0.00    -0.227 NA
ENDBRANCH  19  20
ENDBRANCH  16  19
ENDBRANCH  12  16
ENDBRANCH  11  14
BRANCH  11  25
ATOM     25  CB  CYS A   2       7.371 -18.878  12.166  0.00  0.00    +0.098 C 
ATOM     26  SG  CYS A   2       8.316 -18.211  10.824  0.00  0.00    -0.080 S 
ENDBRANCH  11  25
ENDBRANCH   7  11
ENDBRANCH   5   8
ENDBRANCH   1   5
BRANCH   3  27
ATOM     27  CA  VAL A   4       5.451 -13.241  12.104  0.00  0.00    +0.149 C 
BRANCH  27  28
ATOM     28  C   VAL A   4       4.687 -11.974  12.373  0.00  0.00    +0.241 C 
ATOM     29  N   LYS A   5       5.117 -11.273  13.415  0.00  0.00    -0.298 N 
ATOM     30  H   LYS A   5       5.969 -11.597  13.917  0.00  0.00    +0.150 HD
ATOM     31  O   VAL A   4       3.757 -11.632  11.651  0.00  0.00    -0.273 OA
BRANCH  29  32
ATOM     32  CA  LYS A   5       4.449 -10.077  13.881  0.00  0.00    +0.137 C 
BRANCH  32  33
ATOM     33  C   LYS A   5       5.249  -8.831  13.520  0.00  0.00    +0.227 C 
ATOM     34  O   LYS A   5       6.359  -8.625  14.008  0.00  0.00    -0.286 OA
ENDBRANCH  32  33
BRANCH  32  35
ATOM     35  CB  LYS A   5       4.257 -10.162  15.396  0.00  0.00    +0.028 C 
BRANCH  35  36
ATOM     36  CG  LYS A   5       2.879  -9.733  15.892  0.00  0.00    -0.000 C 
BRANCH  36  37
ATOM     37  CD  LYS A   5       2.720  -8.236  15.881  0.00  0.00    -0.024 C 
BRANCH  37  38
ATOM     38  CE  LYS A   5       1.268  -7.821  16.154  0.00  0.00    -0.086 C 
BRANCH  38  39
ATOM     39  NZ  LYS A   5       0.966  -7.387  17.558  0.00  0.00    +0.380 N 
ATOM     40  HZ1 LYS A   5       1.174  -8.167  18.213  0.00  0.00    -0.089 HD
ATOM     41  HZ2 LYS A   5       1.554  -6.564  17.799  0.00  0.00    -0.089 HD
ATOM     42  HZ3 LYS A   5      -0.039  -7.130  17.631  0.00  0.00    -0.089 HD
ENDBRANCH  38  39
ENDBRANCH  37  38
ENDBRANCH  36  37
ENDBRANCH  35  36
ENDBRANCH  32  35
ENDBRANCH  29  32
ENDBRANCH  27  28
BRANCH  27  43
ATOM     43  CB  VAL A   4       6.395 -13.036  10.900  0.00  0.00    +0.027 C 
ATOM     44  CG2 VAL A   4       7.263 -11.795  11.111  0.00  0.00    +0.002 C 
ATOM     45  CG1 VAL A   4       7.251 -14.276  10.702  0.00  0.00    +0.002 C 
ENDBRANCH  27  43
ENDBRANCH   3  27
TORSDOF 19
REMARK  Name = ../refined-set-2016/4gg7/4gg7_pocket.pdb
REMARK  234 active torsions:
REMARK  status: ('A' for Active; 'I' for Inactive)
REMARK    1  A    between atoms: _1  and  _3
REMARK    2  A    between atoms: _3  and  _4
REMARK    3  A    between atoms: _3  and  _6
REMARK    4  A    between atoms: _9  and  _11
REMARK    5  A    between atoms: _11  and  _12
REMARK    6  A    between atoms: _11  and  _14
REMARK    7  A    between atoms: _14  and  _15
REMARK    8  A    between atoms: _18  and  _20
REMARK    9  A    between atoms: _20  and  _21
REMARK   10  A    between atoms: _23  and  _25
REMARK   11  A    between atoms: _25  and  _26
REMARK   12  A    between atoms: _25  and  _28
REMARK   13  A    between atoms: _28  and  _29
REMARK   14  A    between atoms: _29  and  _30
REMARK   15  A    between atoms: _30  and  _31
REMARK   16  A    between atoms: _40  and  _42
REMARK   17  A    between atoms: _42  and  _43
REMARK   18  A    between atoms: _45  and  _47
REMARK   19  A    between atoms: _47  and  _48
REMARK   20  A    between atoms: _50  and  _52
REMARK   21  A    between atoms: _52  and  _53
REMARK   22  A    between atoms: _52  and  _55
REMARK   23  A    between atoms: _57  and  _59
REMARK   24  A    between atoms: _59  and  _60
REMARK   25  A    between atoms: _59  and  _62
REMARK   26  A    between atoms: _65  and  _67
REMARK   27  A    between atoms: _67  and  _68
REMARK   28  A    between atoms: _67  and  _70
REMARK   29  A    between atoms: _70  and  _71
REMARK   30  A    between atoms: _76  and  _77
REMARK   31  A    between atoms: _79  and  _81
REMARK   32  A    between atoms: _81  and  _82
REMARK   33  A    between atoms: _81  and  _84
REMARK   34  A    between atoms: _84  and  _85
REMARK   35  A    between atoms: _90  and  _92
REMARK   36  A    between atoms: _92  and  _93
REMARK   37  A    between atoms: _92  and  _95
REMARK   38  A    between atoms: _95  and  _96
REMARK   39  A    between atoms: _101  and  _103
REMARK   40  A    between atoms: _103  and  _104
REMARK   41  A    between atoms: _103  and  _106
REMARK   42  A    between atoms: _108  and  _110
REMARK   43  A    between atoms: _110  and  _111
REMARK   44  A    between atoms: _114  and  _116
REMARK   45  A    between atoms: _116  and  _117
REMARK   46  A    between atoms: _116  and  _119
REMARK   47  A    between atoms: _122  and  _124
REMARK   48  A    between atoms: _124  and  _125
REMARK   49  A    between atoms: _124  and  _127
REMARK   50  A    between atoms: _127  and  _128
REMARK   51  A    between atoms: _128  and  _129
REMARK   52  A    between atoms: _129  and  _130
REMARK   53  A    between atoms: _130  and  _131
REMARK   54  A    between atoms: _135  and  _137
REMARK   55  A    between atoms: _137  and  _138
REMARK   56  A    between atoms: _137  and  _140
REMARK   57  A    between atoms: _140  and  _141
REMARK   58  A    between atoms: _141  and  _142
REMARK   59  A    between atoms: _144  and  _146
REMARK   60  A    between atoms: _146  and  _147
REMARK   61  A    between atoms: _146  and  _149
REMARK   62  A    between atoms: _149  and  _150
REMARK   63  A    between atoms: _153  and  _155
REMARK   64  A    between atoms: _155  and  _156
REMARK   65  A    between atoms: _155  and  _158
REMARK   66  A    between atoms: _158  and  _159
REMARK   67  A    between atoms: _161  and  _163
REMARK   68  A    between atoms: _163  and  _164
REMARK   69  A    between atoms: _163  and  _166
REMARK   70  A    between atoms: _166  and  _167
REMARK   71  A    between atoms: _170  and  _172
REMARK   72  A    between atoms: _172  and  _173
REMARK   73  A    between atoms: _172  and  _175
REMARK   74  A    between atoms: _178  and  _180
REMARK   75  A    between atoms: _180  and  _181
REMARK   76  A    between atoms: _180  and  _183
REMARK   77  A    between atoms: _186  and  _188
REMARK   78  A    between atoms: _188  and  _189
REMARK   79  A    between atoms: _188  and  _191
REMARK   80  A    between atoms: _191  and  _192
REMARK   81  A    between atoms: _196  and  _197
REMARK   82  A    between atoms: _202  and  _204
REMARK   83  A    between atoms: _204  and  _205
REMARK   84  A    between atoms: _204  and  _207
REMARK   85  A    between atoms: _207  and  _208
REMARK   86  A    between atoms: _213  and  _214
REMARK   87  A    between atoms: _216  and  _218
REMARK   88  A    between atoms: _218  and  _219
REMARK   89  A    between atoms: _218  and  _221
REMARK   90  A    between atoms: _221  and  _222
REMARK   91  A    between atoms: _222  and  _223
REMARK   92  A    between atoms: _225  and  _227
REMARK   93  A    between atoms: _227  and  _228
REMARK   94  A    between atoms: _227  and  _230
REMARK   95  A    between atoms: _230  and  _231
REMARK   96  A    between atoms: _231  and  _232
REMARK   97  A    between atoms: _232  and  _233
REMARK   98  A    between atoms: _233  and  _234
REMARK   99  A    between atoms: _238  and  _240
REMARK  100  A    between atoms: _240  and  _241
REMARK  101  A    between atoms: _240  and  _243
REMARK  102  A    between atoms: _243  and  _244
REMARK  103  A    between atoms: _249  and  _251
REMARK  104  A    between atoms: _251  and  _252
REMARK  105  A    between atoms: _254  and  _256
REMARK  106  A    between atoms: _256  and  _257
REMARK  107  A    between atoms: _256  and  _259
REMARK  108  A    between atoms: _259  and  _260
REMARK  109  A    between atoms: _263  and  _265
REMARK  110  A    between atoms: _265  and  _266
REMARK  111  A    between atoms: _265  and  _268
REMARK  112  A    between atoms: _268  and  _269
REMARK  113  A    between atoms: _272  and  _274
REMARK  114  A    between atoms: _274  and  _275
REMARK  115  A    between atoms: _274  and  _277
REMARK  116  A    between atoms: _277  and  _278
REMARK  117  A    between atoms: _278  and  _279
REMARK  118  A    between atoms: _279  and  _280
REMARK  119  A    between atoms: _289  and  _291
REMARK  120  A    between atoms: _291  and  _292
REMARK  121  A    between atoms: _291  and  _294
REMARK  122  A    between atoms: _294  and  _295
REMARK  123  A    between atoms: _300  and  _302
REMARK  124  A    between atoms: _302  and  _303
REMARK  125  A    between atoms: _302  and  _305
REMARK  126  A    between atoms: _305  and  _306
REMARK  127  A    between atoms: _312  and  _314
REMARK  128  A    between atoms: _314  and  _315
REMARK  129  A    between atoms: _314  and  _317
REMARK  130  A    between atoms: _317  and  _318
REMARK  131  A    between atoms: _323  and  _325
REMARK  132  A    between atoms: _325  and  _326
REMARK  133  A    between atoms: _325  and  _328
REMARK  134  A    between atoms: _328  and  _329
REMARK  135  A    between atoms: _334  and  _336
REMARK  136  A    between atoms: _336  and  _337
REMARK  137  A    between atoms: _336  and  _339
REMARK  138  A    between atoms: _339  and  _340
REMARK  139  A    between atoms: _345  and  _347
REMARK  140  A    between atoms: _347  and  _348
REMARK  141  A    between atoms: _347  and  _350
REMARK  142  A    between atoms: _350  and  _351
REMARK  143  A    between atoms: _354  and  _356
REMARK  144  A    between atoms: _356  and  _357
REMARK  145  A    between atoms: _360  and  _362
REMARK  146  A    between atoms: _362  and  _363
REMARK  147  A    between atoms: _366  and  _368
REMARK  148  A    between atoms: _368  and  _369
REMARK  149  A    between atoms: _368  and  _371
REMARK  150  A    between atoms: _371  and  _372
REMARK  151  A    between atoms: _372  and  _373
REMARK  152  A    between atoms: _373  and  _374
REMARK  153  A    between atoms: _383  and  _385
REMARK  154  A    between atoms: _385  and  _386
REMARK  155  A    between atoms: _385  and  _388
REMARK  156  A    between atoms: _388  and  _389
REMARK  157  A    between atoms: _394  and  _396
REMARK  158  A    between atoms: _396  and  _397
REMARK  159  A    between atoms: _396  and  _399
REMARK  160  A    between atoms: _401  and  _403
REMARK  161  A    between atoms: _403  and  _404
REMARK  162  A    between atoms: _403  and  _406
REMARK  163  A    between atoms: _406  and  _407
REMARK  164  A    between atoms: _407  and  _408
REMARK  165  A    between atoms: _410  and  _412
REMARK  166  A    between atoms: _412  and  _413
REMARK  167  A    between atoms: _412  and  _415
REMARK  168  A    between atoms: _415  and  _416
REMARK  169  A    between atoms: _419  and  _421
REMARK  170  A    between atoms: _421  and  _422
REMARK  171  A    between atoms: _421  and  _424
REMARK  172  A    between atoms: _424  and  _425
REMARK  173  A    between atoms: _428  and  _430
REMARK  174  A    between atoms: _430  and  _431
REMARK  175  A    between atoms: _430  and  _433
REMARK  176  A    between atoms: _433  and  _434
REMARK  177  A    between atoms: _434  and  _435
REMARK  178  A    between atoms: _435  and  _436
REMARK  179  A    between atoms: _436  and  _437
REMARK  180  A    between atoms: _441  and  _443
REMARK  181  A    between atoms: _443  and  _444
REMARK  182  A    between atoms: _443  and  _446
REMARK  183  A    between atoms: _449  and  _451
REMARK  184  A    between atoms: _451  and  _452
REMARK  185  A    between atoms: _455  and  _457
REMARK  186  A    between atoms: _457  and  _458
REMARK  187  A    between atoms: _457  and  _460
REMARK  188  A    between atoms: _460  and  _461
REMARK  189  A    between atoms: _464  and  _466
REMARK  190  A    between atoms: _466  and  _467
REMARK  191  A    between atoms: _466  and  _469
REMARK  192  A    between atoms: _469  and  _470
REMARK  193  A    between atoms: _476  and  _478
REMARK  194  A    between atoms: _478  and  _479
REMARK  195  A    between atoms: _478  and  _481
REMARK  196  A    between atoms: _481  and  _482
REMARK  197  A    between atoms: _485  and  _487
REMARK  198  A    between atoms: _487  and  _488
REMARK  199  A    between atoms: _491  and  _493
REMARK  200  A    between atoms: _493  and  _494
REMARK  201  A    between atoms: _493  and  _496
REMARK  202  A    between atoms: _496  and  _497
REMARK  203  A    between atoms: _497  and  _498
REMARK  204  A    between atoms: _498  and  _499
REMARK  205  A    between atoms: _508  and  _510
REMARK  206  A    between atoms: _510  and  _511
REMARK  207  A    between atoms: _510  and  _513
REMARK  208  A    between atoms: _513  and  _514
REMARK  209  A    between atoms: _517  and  _519
REMARK  210  A    between atoms: _519  and  _520
REMARK  211  A    between atoms: _519  and  _522
REMARK  212  A    between atoms: _522  and  _523
REMARK  213  A    between atoms: _523  and  _524
REMARK  214  A    between atoms: _526  and  _528
REMARK  215  A    between atoms: _528  and  _529
REMARK  216  A    between atoms: _528  and  _531
REMARK  217  A    between atoms: _531  and  _532
REMARK  218  A    between atoms: _537  and  _538
REMARK  219  A    between atoms: _540  and  _542
REMARK  220  A    between atoms: _542  and  _543
REMARK  221  A    between atoms: _542  and  _545
REMARK  222  A    between atoms: _545  and  _546
REMARK  223  A    between atoms: _549  and  _551
REMARK  224  A    between atoms: _551  and  _552
REMARK  225  A    between atoms: _551  and  _554
REMARK  226  A    between atoms: _554  and  _555
REMARK  227  A    between atoms: _560  and  _561
REMARK  228  A    between atoms: _563  and  _565
REMARK  229  A    between atoms: _565  and  _566
REMARK  230  A    between atoms: _565  and  _568
REMARK  231  A    between atoms: _568  and  _569
REMARK  232  A    between atoms: _569  and  _570
REMARK  233  A    between atoms: _570  and  _571
REMARK  234  A    between atoms: _571  and  _572
REMARK                            x       y       z     vdW  Elec       q    Type
REMARK                         _______ _______ _______ _____ _____    ______ ____
ROOT
ATOM      1  CA  MET A   1       9.785 -13.608  27.027  0.00  0.00    +0.134 C 
ENDROOT
BRANCH   1   2
ATOM      2  N   MET A   1      10.781 -12.717  27.606  0.00  0.00    -0.239 NA
ATOM      3  H   MET A   1      11.061 -11.860  27.087  0.00  0.00    +0.142 HD
ENDBRANCH   1   2
BRANCH   1   4
ATOM      4  C   MET A   1      10.413 -14.952  26.673  0.00  0.00    +0.224 C 
ATOM      5  O   MET A   1       9.793 -16.007  26.837  0.00  0.00    -0.287 OA
ENDBRANCH   1   4
BRANCH   1   6
ATOM      6  CB  MET A   1       9.151 -12.978  25.785  0.00  0.00    +0.037 C 
BRANCH   6   7
ATOM      7  CG  MET A   1       8.021 -13.802  25.198  0.00  0.00    +0.059 C 
BRANCH   7   8
ATOM      8  SD  MET A   1       7.294 -13.109  23.693  0.00  0.00    -0.139 S 
ATOM      9  CE  MET A   1       6.005 -14.330  23.391  0.00  0.00    +0.069 C 
ENDBRANCH   7   8
ENDBRANCH   6   7
ENDBRANCH   1   6
TORSDOF 5
REMARK  Name = ../refined-set-2016/4gg7/4gg7_pocket.pdb
REMARK  234 active torsions:
REMARK  status: ('A' for Active; 'I' for Inactive)
REMARK    1  A    between atoms: _1  and  _3
REMARK    2  A    between atoms: _3  and  _4
REMARK    3  A    between atoms: _3  and  _6
REMARK    4  A    between atoms: _9  and  _11
REMARK    5  A    between atoms: _11  and  _12
REMARK    6  A    between atoms: _11  and  _14
REMARK    7  A    between atoms: _14  and  _15
REMARK    8  A    between atoms: _18  and  _20
REMARK    9  A    between atoms: _20  and  _21
REMARK   10  A    between atoms: _23  and  _25
REMARK   11  A    between atoms: _25  and  _26
REMARK   12  A    between atoms: _25  and  _28
REMARK   13  A    between atoms: _28  and  _29
REMARK   14  A    between atoms: _29  and  _30
REMARK   15  A    between atoms: _30  and  _31
REMARK   16  A    between atoms: _40  and  _42
REMARK   17  A    between atoms: _42  and  _43
REMARK   18  A    between atoms: _45  and  _47
REMARK   19  A    between atoms: _47  and  _48
REMARK   20  A    between atoms: _50  and  _52
REMARK   21  A    between atoms: _52  and  _53
REMARK   22  A    between atoms: _52  and  _55
REMARK   23  A    between atoms: _57  and  _59
REMARK   24  A    between atoms: _59  and  _60
REMARK   25  A    between atoms: _59  and  _62
REMARK   26  A    between atoms: _65  and  _67
REMARK   27  A    between atoms: _67  and  _68
REMARK   28  A    between atoms: _67  and  _70
REMARK   29  A    between atoms: _70  and  _71
REMARK   30  A    between atoms: _76  and  _77
REMARK   31  A    between atoms: _79  and  _81
REMARK   32  A    between atoms: _81  and  _82
REMARK   33  A    between atoms: _81  and  _84
REMARK   34  A    between atoms: _84  and  _85
REMARK   35  A    between atoms: _90  and  _92
REMARK   36  A    between atoms: _92  and  _93
REMARK   37  A    between atoms: _92  and  _95
REMARK   38  A    between atoms: _95  and  _96
REMARK   39  A    between atoms: _101  and  _103
REMARK   40  A    between atoms: _103  and  _104
REMARK   41  A    between atoms: _103  and  _106
REMARK   42  A    between atoms: _108  and  _110
REMARK   43  A    between atoms: _110  and  _111
REMARK   44  A    between atoms: _114  and  _116
REMARK   45  A    between atoms: _116  and  _117
REMARK   46  A    between atoms: _116  and  _119
REMARK   47  A    between atoms: _122  and  _124
REMARK   48  A    between atoms: _124  and  _125
REMARK   49  A    between atoms: _124  and  _127
REMARK   50  A    between atoms: _127  and  _128
REMARK   51  A    between atoms: _128  and  _129
REMARK   52  A    between atoms: _129  and  _130
REMARK   53  A    between atoms: _130  and  _131
REMARK   54  A    between atoms: _135  and  _137
REMARK   55  A    between atoms: _137  and  _138
REMARK   56  A    between atoms: _137  and  _140
REMARK   57  A    between atoms: _140  and  _141
REMARK   58  A    between atoms: _141  and  _142
REMARK   59  A    between atoms: _144  and  _146
REMARK   60  A    between atoms: _146  and  _147
REMARK   61  A    between atoms: _146  and  _149
REMARK   62  A    between atoms: _149  and  _150
REMARK   63  A    between atoms: _153  and  _155
REMARK   64  A    between atoms: _155  and  _156
REMARK   65  A    between atoms: _155  and  _158
REMARK   66  A    between atoms: _158  and  _159
REMARK   67  A    between atoms: _161  and  _163
REMARK   68  A    between atoms: _163  and  _164
REMARK   69  A    between atoms: _163  and  _166
REMARK   70  A    between atoms: _166  and  _167
REMARK   71  A    between atoms: _170  and  _172
REMARK   72  A    between atoms: _172  and  _173
REMARK   73  A    between atoms: _172  and  _175
REMARK   74  A    between atoms: _178  and  _180
REMARK   75  A    between atoms: _180  and  _181
REMARK   76  A    between atoms: _180  and  _183
REMARK   77  A    between atoms: _186  and  _188
REMARK   78  A    between atoms: _188  and  _189
REMARK   79  A    between atoms: _188  and  _191
REMARK   80  A    between atoms: _191  and  _192
REMARK   81  A    between atoms: _196  and  _197
REMARK   82  A    between atoms: _202  and  _204
REMARK   83  A    between atoms: _204  and  _205
REMARK   84  A    between atoms: _204  and  _207
REMARK   85  A    between atoms: _207  and  _208
REMARK   86  A    between atoms: _213  and  _214
REMARK   87  A    between atoms: _216  and  _218
REMARK   88  A    between atoms: _218  and  _219
REMARK   89  A    between atoms: _218  and  _221
REMARK   90  A    between atoms: _221  and  _222
REMARK   91  A    between atoms: _222  and  _223
REMARK   92  A    between atoms: _225  and  _227
REMARK   93  A    between atoms: _227  and  _228
REMARK   94  A    between atoms: _227  and  _230
REMARK   95  A    between atoms: _230  and  _231
REMARK   96  A    between atoms: _231  and  _232
REMARK   97  A    between atoms: _232  and  _233
REMARK   98  A    between atoms: _233  and  _234
REMARK   99  A    between atoms: _238  and  _240
REMARK  100  A    between atoms: _240  and  _241
REMARK  101  A    between atoms: _240  and  _243
REMARK  102  A    between atoms: _243  and  _244
REMARK  103  A    between atoms: _249  and  _251
REMARK  104  A    between atoms: _251  and  _252
REMARK  105  A    between atoms: _254  and  _256
REMARK  106  A    between atoms: _256  and  _257
REMARK  107  A    between atoms: _256  and  _259
REMARK  108  A    between atoms: _259  and  _260
REMARK  109  A    between atoms: _263  and  _265
REMARK  110  A    between atoms: _265  and  _266
REMARK  111  A    between atoms: _265  and  _268
REMARK  112  A    between atoms: _268  and  _269
REMARK  113  A    between atoms: _272  and  _274
REMARK  114  A    between atoms: _274  and  _275
REMARK  115  A    between atoms: _274  and  _277
REMARK  116  A    between atoms: _277  and  _278
REMARK  117  A    between atoms: _278  and  _279
REMARK  118  A    between atoms: _279  and  _280
REMARK  119  A    between atoms: _289  and  _291
REMARK  120  A    between atoms: _291  and  _292
REMARK  121  A    between atoms: _291  and  _294
REMARK  122  A    between atoms: _294  and  _295
REMARK  123  A    between atoms: _300  and  _302
REMARK  124  A    between atoms: _302  and  _303
REMARK  125  A    between atoms: _302  and  _305
REMARK  126  A    between atoms: _305  and  _306
REMARK  127  A    between atoms: _312  and  _314
REMARK  128  A    between atoms: _314  and  _315
REMARK  129  A    between atoms: _314  and  _317
REMARK  130  A    between atoms: _317  and  _318
REMARK  131  A    between atoms: _323  and  _325
REMARK  132  A    between atoms: _325  and  _326
REMARK  133  A    between atoms: _325  and  _328
REMARK  134  A    between atoms: _328  and  _329
REMARK  135  A    between atoms: _334  and  _336
REMARK  136  A    between atoms: _336  and  _337
REMARK  137  A    between atoms: _336  and  _339
REMARK  138  A    between atoms: _339  and  _340
REMARK  139  A    between atoms: _345  and  _347
REMARK  140  A    between atoms: _347  and  _348
REMARK  141  A    between atoms: _347  and  _350
REMARK  142  A    between atoms: _350  and  _351
REMARK  143  A    between atoms: _354  and  _356
REMARK  144  A    between atoms: _356  and  _357
REMARK  145  A    between atoms: _360  and  _362
REMARK  146  A    between atoms: _362  and  _363
REMARK  147  A    between atoms: _366  and  _368
REMARK  148  A    between atoms: _368  and  _369
REMARK  149  A    between atoms: _368  and  _371
REMARK  150  A    between atoms: _371  and  _372
REMARK  151  A    between atoms: _372  and  _373
REMARK  152  A    between atoms: _373  and  _374
REMARK  153  A    between atoms: _383  and  _385
REMARK  154  A    between atoms: _385  and  _386
REMARK  155  A    between atoms: _385  and  _388
REMARK  156  A    between atoms: _388  and  _389
REMARK  157  A    between atoms: _394  and  _396
REMARK  158  A    between atoms: _396  and  _397
REMARK  159  A    between atoms: _396  and  _399
REMARK  160  A    between atoms: _401  and  _403
REMARK  161  A    between atoms: _403  and  _404
REMARK  162  A    between atoms: _403  and  _406
REMARK  163  A    between atoms: _406  and  _407
REMARK  164  A    between atoms: _407  and  _408
REMARK  165  A    between atoms: _410  and  _412
REMARK  166  A    between atoms: _412  and  _413
REMARK  167  A    between atoms: _412  and  _415
REMARK  168  A    between atoms: _415  and  _416
REMARK  169  A    between atoms: _419  and  _421
REMARK  170  A    between atoms: _421  and  _422
REMARK  171  A    between atoms: _421  and  _424
REMARK  172  A    between atoms: _424  and  _425
REMARK  173  A    between atoms: _428  and  _430
REMARK  174  A    between atoms: _430  and  _431
REMARK  175  A    between atoms: _430  and  _433
REMARK  176  A    between atoms: _433  and  _434
REMARK  177  A    between atoms: _434  and  _435
REMARK  178  A    between atoms: _435  and  _436
REMARK  179  A    between atoms: _436  and  _437
REMARK  180  A    between atoms: _441  and  _443
REMARK  181  A    between atoms: _443  and  _444
REMARK  182  A    between atoms: _443  and  _446
REMARK  183  A    between atoms: _449  and  _451
REMARK  184  A    between atoms: _451  and  _452
REMARK  185  A    between atoms: _455  and  _457
REMARK  186  A    between atoms: _457  and  _458
REMARK  187  A    between atoms: _457  and  _460
REMARK  188  A    between atoms: _460  and  _461
REMARK  189  A    between atoms: _464  and  _466
REMARK  190  A    between atoms: _466  and  _467
REMARK  191  A    between atoms: _466  and  _469
REMARK  192  A    between atoms: _469  and  _470
REMARK  193  A    between atoms: _476  and  _478
REMARK  194  A    between atoms: _478  and  _479
REMARK  195  A    between atoms: _478  and  _481
REMARK  196  A    between atoms: _481  and  _482
REMARK  197  A    between atoms: _485  and  _487
REMARK  198  A    between atoms: _487  and  _488
REMARK  199  A    between atoms: _491  and  _493
REMARK  200  A    between atoms: _493  and  _494
REMARK  201  A    between atoms: _493  and  _496
REMARK  202  A    between atoms: _496  and  _497
REMARK  203  A    between atoms: _497  and  _498
REMARK  204  A    between atoms: _498  and  _499
REMARK  205  A    between atoms: _508  and  _510
REMARK  206  A    between atoms: _510  and  _511
REMARK  207  A    between atoms: _510  and  _513
REMARK  208  A    between atoms: _513  and  _514
REMARK  209  A    between atoms: _517  and  _519
REMARK  210  A    between atoms: _519  and  _520
REMARK  211  A    between atoms: _519  and  _522
REMARK  212  A    between atoms: _522  and  _523
REMARK  213  A    between atoms: _523  and  _524
REMARK  214  A    between atoms: _526  and  _528
REMARK  215  A    between atoms: _528  and  _529
REMARK  216  A    between atoms: _528  and  _531
REMARK  217  A    between atoms: _531  and  _532
REMARK  218  A    between atoms: _537  and  _538
REMARK  219  A    between atoms: _540  and  _542
REMARK  220  A    between atoms: _542  and  _543
REMARK  221  A    between atoms: _542  and  _545
REMARK  222  A    between atoms: _545  and  _546
REMARK  223  A    between atoms: _549  and  _551
REMARK  224  A    between atoms: _551  and  _552
REMARK  225  A    between atoms: _551  and  _554
REMARK  226  A    between atoms: _554  and  _555
REMARK  227  A    between atoms: _560  and  _561
REMARK  228  A    between atoms: _563  and  _565
REMARK  229  A    between atoms: _565  and  _566
REMARK  230  A    between atoms: _565  and  _568
REMARK  231  A    between atoms: _568  and  _569
REMARK  232  A    between atoms: _569  and  _570
REMARK  233  A    between atoms: _570  and  _571
REMARK  234  A    between atoms: _571  and  _572
REMARK                            x       y       z     vdW  Elec       q    Type
REMARK                         _______ _______ _______ _____ _____    ______ ____
ROOT
ATOM      1  C   LEU A   1       4.610 -19.030  23.935  0.00  0.00    +0.238 C 
ATOM      2  O   LEU A   1       5.039 -18.387  24.885  0.00  0.00    -0.274 OA
ATOM      3  N   SER A   2       5.400 -19.555  23.010  0.00  0.00    -0.296 N 
ATOM      4  H   SER A   2       4.986 -20.097  22.224  0.00  0.00    +0.150 HD
ENDROOT
BRANCH   1   5
ATOM      5  CA  LEU A   1       3.125 -19.272  23.767  0.00  0.00    +0.145 C 
BRANCH   5   6
ATOM      6  N   LEU A   1       2.549 -19.623  25.056  0.00  0.00    -0.238 NA
ATOM      7  H   LEU A   1       1.819 -19.015  25.479  0.00  0.00    +0.142 HD
ENDBRANCH   5   6
BRANCH   5   8
ATOM      8  CB  LEU A   1       2.439 -18.041  23.165  0.00  0.00    +0.026 C 
BRANCH   8   9
ATOM      9  CG  LEU A   1       2.827 -17.674  21.728  0.00  0.00    +0.002 C 
ATOM     10  CD2 LEU A   1       2.199 -16.344  21.314  0.00  0.00    +0.000 C 
ATOM     11  CD1 LEU A   1       2.457 -18.775  20.739  0.00  0.00    +0.000 C 
ENDBRANCH   8   9
ENDBRANCH   5   8
ENDBRANCH   1   5
BRANCH   3  12
ATOM     12  CA  SER A   2       6.842 -19.379  23.086  0.00  0.00    +0.166 C 
BRANCH  12  13
ATOM     13  C   SER A   2       7.360 -18.435  22.010  0.00  0.00    +0.229 C 
ATOM     14  O   SER A   2       6.841 -18.401  20.901  0.00  0.00    -0.286 OA
ENDBRANCH  12  13
BRANCH  12  15
ATOM     15  CB  SER A   2       7.520 -20.735  22.962  0.00  0.00    +0.165 C 
BRANCH  15  16
ATOM     16  OG  SER A   2       6.576 -21.683  22.492  0.00  0.00    -0.380 OA
ATOM     17  H   SER A   2       5.823 -21.743  23.132  0.00  0.00    +0.211 HD
ENDBRANCH  15  16
ENDBRANCH  12  15
ENDBRANCH   3  12
TORSDOF 8
REMARK  Name = ../refined-set-2016/4gg7/4gg7_pocket.pdb
REMARK  234 active torsions:
REMARK  status: ('A' for Active; 'I' for Inactive)
REMARK    1  A    between atoms: _1  and  _3
REMARK    2  A    between atoms: _3  and  _4
REMARK    3  A    between atoms: _3  and  _6
REMARK    4  A    between atoms: _9  and  _11
REMARK    5  A    between atoms: _11  and  _12
REMARK    6  A    between atoms: _11  and  _14
REMARK    7  A    between atoms: _14  and  _15
REMARK    8  A    between atoms: _18  and  _20
REMARK    9  A    between atoms: _20  and  _21
REMARK   10  A    between atoms: _23  and  _25
REMARK   11  A    between atoms: _25  and  _26
REMARK   12  A    between atoms: _25  and  _28
REMARK   13  A    between atoms: _28  and  _29
REMARK   14  A    between atoms: _29  and  _30
REMARK   15  A    between atoms: _30  and  _31
REMARK   16  A    between atoms: _40  and  _42
REMARK   17  A    between atoms: _42  and  _43
REMARK   18  A    between atoms: _45  and  _47
REMARK   19  A    between atoms: _47  and  _48
REMARK   20  A    between atoms: _50  and  _52
REMARK   21  A    between atoms: _52  and  _53
REMARK   22  A    between atoms: _52  and  _55
REMARK   23  A    between atoms: _57  and  _59
REMARK   24  A    between atoms: _59  and  _60
REMARK   25  A    between atoms: _59  and  _62
REMARK   26  A    between atoms: _65  and  _67
REMARK   27  A    between atoms: _67  and  _68
REMARK   28  A    between atoms: _67  and  _70
REMARK   29  A    between atoms: _70  and  _71
REMARK   30  A    between atoms: _76  and  _77
REMARK   31  A    between atoms: _79  and  _81
REMARK   32  A    between atoms: _81  and  _82
REMARK   33  A    between atoms: _81  and  _84
REMARK   34  A    between atoms: _84  and  _85
REMARK   35  A    between atoms: _90  and  _92
REMARK   36  A    between atoms: _92  and  _93
REMARK   37  A    between atoms: _92  and  _95
REMARK   38  A    between atoms: _95  and  _96
REMARK   39  A    between atoms: _101  and  _103
REMARK   40  A    between atoms: _103  and  _104
REMARK   41  A    between atoms: _103  and  _106
REMARK   42  A    between atoms: _108  and  _110
REMARK   43  A    between atoms: _110  and  _111
REMARK   44  A    between atoms: _114  and  _116
REMARK   45  A    between atoms: _116  and  _117
REMARK   46  A    between atoms: _116  and  _119
REMARK   47  A    between atoms: _122  and  _124
REMARK   48  A    between atoms: _124  and  _125
REMARK   49  A    between atoms: _124  and  _127
REMARK   50  A    between atoms: _127  and  _128
REMARK   51  A    between atoms: _128  and  _129
REMARK   52  A    between atoms: _129  and  _130
REMARK   53  A    between atoms: _130  and  _131
REMARK   54  A    between atoms: _135  and  _137
REMARK   55  A    between atoms: _137  and  _138
REMARK   56  A    between atoms: _137  and  _140
REMARK   57  A    between atoms: _140  and  _141
REMARK   58  A    between atoms: _141  and  _142
REMARK   59  A    between atoms: _144  and  _146
REMARK   60  A    between atoms: _146  and  _147
REMARK   61  A    between atoms: _146  and  _149
REMARK   62  A    between atoms: _149  and  _150
REMARK   63  A    between atoms: _153  and  _155
REMARK   64  A    between atoms: _155  and  _156
REMARK   65  A    between atoms: _155  and  _158
REMARK   66  A    between atoms: _158  and  _159
REMARK   67  A    between atoms: _161  and  _163
REMARK   68  A    between atoms: _163  and  _164
REMARK   69  A    between atoms: _163  and  _166
REMARK   70  A    between atoms: _166  and  _167
REMARK   71  A    between atoms: _170  and  _172
REMARK   72  A    between atoms: _172  and  _173
REMARK   73  A    between atoms: _172  and  _175
REMARK   74  A    between atoms: _178  and  _180
REMARK   75  A    between atoms: _180  and  _181
REMARK   76  A    between atoms: _180  and  _183
REMARK   77  A    between atoms: _186  and  _188
REMARK   78  A    between atoms: _188  and  _189
REMARK   79  A    between atoms: _188  and  _191
REMARK   80  A    between atoms: _191  and  _192
REMARK   81  A    between atoms: _196  and  _197
REMARK   82  A    between atoms: _202  and  _204
REMARK   83  A    between atoms: _204  and  _205
REMARK   84  A    between atoms: _204  and  _207
REMARK   85  A    between atoms: _207  and  _208
REMARK   86  A    between atoms: _213  and  _214
REMARK   87  A    between atoms: _216  and  _218
REMARK   88  A    between atoms: _218  and  _219
REMARK   89  A    between atoms: _218  and  _221
REMARK   90  A    between atoms: _221  and  _222
REMARK   91  A    between atoms: _222  and  _223
REMARK   92  A    between atoms: _225  and  _227
REMARK   93  A    between atoms: _227  and  _228
REMARK   94  A    between atoms: _227  and  _230
REMARK   95  A    between atoms: _230  and  _231
REMARK   96  A    between atoms: _231  and  _232
REMARK   97  A    between atoms: _232  and  _233
REMARK   98  A    between atoms: _233  and  _234
REMARK   99  A    between atoms: _238  and  _240
REMARK  100  A    between atoms: _240  and  _241
REMARK  101  A    between atoms: _240  and  _243
REMARK  102  A    between atoms: _243  and  _244
REMARK  103  A    between atoms: _249  and  _251
REMARK  104  A    between atoms: _251  and  _252
REMARK  105  A    between atoms: _254  and  _256
REMARK  106  A    between atoms: _256  and  _257
REMARK  107  A    between atoms: _256  and  _259
REMARK  108  A    between atoms: _259  and  _260
REMARK  109  A    between atoms: _263  and  _265
REMARK  110  A    between atoms: _265  and  _266
REMARK  111  A    between atoms: _265  and  _268
REMARK  112  A    between atoms: _268  and  _269
REMARK  113  A    between atoms: _272  and  _274
REMARK  114  A    between atoms: _274  and  _275
REMARK  115  A    between atoms: _274  and  _277
REMARK  116  A    between atoms: _277  and  _278
REMARK  117  A    between atoms: _278  and  _279
REMARK  118  A    between atoms: _279  and  _280
REMARK  119  A    between atoms: _289  and  _291
REMARK  120  A    between atoms: _291  and  _292
REMARK  121  A    between atoms: _291  and  _294
REMARK  122  A    between atoms: _294  and  _295
REMARK  123  A    between atoms: _300  and  _302
REMARK  124  A    between atoms: _302  and  _303
REMARK  125  A    between atoms: _302  and  _305
REMARK  126  A    between atoms: _305  and  _306
REMARK  127  A    between atoms: _312  and  _314
REMARK  128  A    between atoms: _314  and  _315
REMARK  129  A    between atoms: _314  and  _317
REMARK  130  A    between atoms: _317  and  _318
REMARK  131  A    between atoms: _323  and  _325
REMARK  132  A    between atoms: _325  and  _326
REMARK  133  A    between atoms: _325  and  _328
REMARK  134  A    between atoms: _328  and  _329
REMARK  135  A    between atoms: _334  and  _336
REMARK  136  A    between atoms: _336  and  _337
REMARK  137  A    between atoms: _336  and  _339
REMARK  138  A    between atoms: _339  and  _340
REMARK  139  A    between atoms: _345  and  _347
REMARK  140  A    between atoms: _347  and  _348
REMARK  141  A    between atoms: _347  and  _350
REMARK  142  A    between atoms: _350  and  _351
REMARK  143  A    between atoms: _354  and  _356
REMARK  144  A    between atoms: _356  and  _357
REMARK  145  A    between atoms: _360  and  _362
REMARK  146  A    between atoms: _362  and  _363
REMARK  147  A    between atoms: _366  and  _368
REMARK  148  A    between atoms: _368  and  _369
REMARK  149  A    between atoms: _368  and  _371
REMARK  150  A    between atoms: _371  and  _372
REMARK  151  A    between atoms: _372  and  _373
REMARK  152  A    between atoms: _373  and  _374
REMARK  153  A    between atoms: _383  and  _385
REMARK  154  A    between atoms: _385  and  _386
REMARK  155  A    between atoms: _385  and  _388
REMARK  156  A    between atoms: _388  and  _389
REMARK  157  A    between atoms: _394  and  _396
REMARK  158  A    between atoms: _396  and  _397
REMARK  159  A    between atoms: _396  and  _399
REMARK  160  A    between atoms: _401  and  _403
REMARK  161  A    between atoms: _403  and  _404
REMARK  162  A    between atoms: _403  and  _406
REMARK  163  A    between atoms: _406  and  _407
REMARK  164  A    between atoms: _407  and  _408
REMARK  165  A    between atoms: _410  and  _412
REMARK  166  A    between atoms: _412  and  _413
REMARK  167  A    between atoms: _412  and  _415
REMARK  168  A    between atoms: _415  and  _416
REMARK  169  A    between atoms: _419  and  _421
REMARK  170  A    between atoms: _421  and  _422
REMARK  171  A    between atoms: _421  and  _424
REMARK  172  A    between atoms: _424  and  _425
REMARK  173  A    between atoms: _428  and  _430
REMARK  174  A    between atoms: _430  and  _431
REMARK  175  A    between atoms: _430  and  _433
REMARK  176  A    between atoms: _433  and  _434
REMARK  177  A    between atoms: _434  and  _435
REMARK  178  A    between atoms: _435  and  _436
REMARK  179  A    between atoms: _436  and  _437
REMARK  180  A    between atoms: _441  and  _443
REMARK  181  A    between atoms: _443  and  _444
REMARK  182  A    between atoms: _443  and  _446
REMARK  183  A    between atoms: _449  and  _451
REMARK  184  A    between atoms: _451  and  _452
REMARK  185  A    between atoms: _455  and  _457
REMARK  186  A    between atoms: _457  and  _458
REMARK  187  A    between atoms: _457  and  _460
REMARK  188  A    between atoms: _460  and  _461
REMARK  189  A    between atoms: _464  and  _466
REMARK  190  A    between atoms: _466  and  _467
REMARK  191  A    between atoms: _466  and  _469
REMARK  192  A    between atoms: _469  and  _470
REMARK  193  A    between atoms: _476  and  _478
REMARK  194  A    between atoms: _478  and  _479
REMARK  195  A    between atoms: _478  and  _481
REMARK  196  A    between atoms: _481  and  _482
REMARK  197  A    between atoms: _485  and  _487
REMARK  198  A    between atoms: _487  and  _488
REMARK  199  A    between atoms: _491  and  _493
REMARK  200  A    between atoms: _493  and  _494
REMARK  201  A    between atoms: _493  and  _496
REMARK  202  A    between atoms: _496  and  _497
REMARK  203  A    between atoms: _497  and  _498
REMARK  204  A    between atoms: _498  and  _499
REMARK  205  A    between atoms: _508  and  _510
REMARK  206  A    between atoms: _510  and  _511
REMARK  207  A    between atoms: _510  and  _513
REMARK  208  A    between atoms: _513  and  _514
REMARK  209  A    between atoms: _517  and  _519
REMARK  210  A    between atoms: _519  and  _520
REMARK  211  A    between atoms: _519  and  _522
REMARK  212  A    between atoms: _522  and  _523
REMARK  213  A    between atoms: _523  and  _524
REMARK  214  A    between atoms: _526  and  _528
REMARK  215  A    between atoms: _528  and  _529
REMARK  216  A    between atoms: _528  and  _531
REMARK  217  A    between atoms: _531  and  _532
REMARK  218  A    between atoms: _537  and  _538
REMARK  219  A    between atoms: _540  and  _542
REMARK  220  A    between atoms: _542  and  _543
REMARK  221  A    between atoms: _542  and  _545
REMARK  222  A    between atoms: _545  and  _546
REMARK  223  A    between atoms: _549  and  _551
REMARK  224  A    between atoms: _551  and  _552
REMARK  225  A    between atoms: _551  and  _554
REMARK  226  A    between atoms: _554  and  _555
REMARK  227  A    between atoms: _560  and  _561
REMARK  228  A    between atoms: _563  and  _565
REMARK  229  A    between atoms: _565  and  _566
REMARK  230  A    between atoms: _565  and  _568
REMARK  231  A    between atoms: _568  and  _569
REMARK  232  A    between atoms: _569  and  _570
REMARK  233  A    between atoms: _570  and  _571
REMARK  234  A    between atoms: _571  and  _572
REMARK                            x       y       z     vdW  Elec       q    Type
REMARK                         _______ _______ _______ _____ _____    ______ ____
ROOT
ATOM      1  CA  LEU A   1      11.086 -18.255  18.549  0.00  0.00    +0.133 C 
ENDROOT
BRANCH   1   2
ATOM      2  N   LEU A   1      10.045 -17.598  19.354  0.00  0.00    -0.239 NA
ATOM      3  H   LEU A   1       9.204 -17.214  18.878  0.00  0.00    +0.142 HD
ENDBRANCH   1   2
BRANCH   1   4
ATOM      4  C   LEU A   1      12.286 -17.367  18.354  0.00  0.00    +0.224 C 
ATOM      5  O   LEU A   1      13.416 -17.832  18.375  0.00  0.00    -0.287 OA
ENDBRANCH   1   4
BRANCH   1   6
ATOM      6  CB  LEU A   1      10.564 -18.666  17.171  0.00  0.00    +0.025 C 
BRANCH   6   7
ATOM      7  CG  LEU A   1       9.459 -19.707  17.216  0.00  0.00    +0.002 C 
ATOM      8  CD2 LEU A   1       9.852 -20.785  18.202  0.00  0.00    +0.000 C 
ATOM      9  CD1 LEU A   1       9.212 -20.278  15.833  0.00  0.00    +0.000 C 
ENDBRANCH   6   7
ENDBRANCH   1   6
TORSDOF 4
REMARK  Name = ../refined-set-2016/4gg7/4gg7_pocket.pdb
REMARK  234 active torsions:
REMARK  status: ('A' for Active; 'I' for Inactive)
REMARK    1  A    between atoms: _1  and  _3
REMARK    2  A    between atoms: _3  and  _4
REMARK    3  A    between atoms: _3  and  _6
REMARK    4  A    between atoms: _9  and  _11
REMARK    5  A    between atoms: _11  and  _12
REMARK    6  A    between atoms: _11  and  _14
REMARK    7  A    between atoms: _14  and  _15
REMARK    8  A    between atoms: _18  and  _20
REMARK    9  A    between atoms: _20  and  _21
REMARK   10  A    between atoms: _23  and  _25
REMARK   11  A    between atoms: _25  and  _26
REMARK   12  A    between atoms: _25  and  _28
REMARK   13  A    between atoms: _28  and  _29
REMARK   14  A    between atoms: _29  and  _30
REMARK   15  A    between atoms: _30  and  _31
REMARK   16  A    between atoms: _40  and  _42
REMARK   17  A    between atoms: _42  and  _43
REMARK   18  A    between atoms: _45  and  _47
REMARK   19  A    between atoms: _47  and  _48
REMARK   20  A    between atoms: _50  and  _52
REMARK   21  A    between atoms: _52  and  _53
REMARK   22  A    between atoms: _52  and  _55
REMARK   23  A    between atoms: _57  and  _59
REMARK   24  A    between atoms: _59  and  _60
REMARK   25  A    between atoms: _59  and  _62
REMARK   26  A    between atoms: _65  and  _67
REMARK   27  A    between atoms: _67  and  _68
REMARK   28  A    between atoms: _67  and  _70
REMARK   29  A    between atoms: _70  and  _71
REMARK   30  A    between atoms: _76  and  _77
REMARK   31  A    between atoms: _79  and  _81
REMARK   32  A    between atoms: _81  and  _82
REMARK   33  A    between atoms: _81  and  _84
REMARK   34  A    between atoms: _84  and  _85
REMARK   35  A    between atoms: _90  and  _92
REMARK   36  A    between atoms: _92  and  _93
REMARK   37  A    between atoms: _92  and  _95
REMARK   38  A    between atoms: _95  and  _96
REMARK   39  A    between atoms: _101  and  _103
REMARK   40  A    between atoms: _103  and  _104
REMARK   41  A    between atoms: _103  and  _106
REMARK   42  A    between atoms: _108  and  _110
REMARK   43  A    between atoms: _110  and  _111
REMARK   44  A    between atoms: _114  and  _116
REMARK   45  A    between atoms: _116  and  _117
REMARK   46  A    between atoms: _116  and  _119
REMARK   47  A    between atoms: _122  and  _124
REMARK   48  A    between atoms: _124  and  _125
REMARK   49  A    between atoms: _124  and  _127
REMARK   50  A    between atoms: _127  and  _128
REMARK   51  A    between atoms: _128  and  _129
REMARK   52  A    between atoms: _129  and  _130
REMARK   53  A    between atoms: _130  and  _131
REMARK   54  A    between atoms: _135  and  _137
REMARK   55  A    between atoms: _137  and  _138
REMARK   56  A    between atoms: _137  and  _140
REMARK   57  A    between atoms: _140  and  _141
REMARK   58  A    between atoms: _141  and  _142
REMARK   59  A    between atoms: _144  and  _146
REMARK   60  A    between atoms: _146  and  _147
REMARK   61  A    between atoms: _146  and  _149
REMARK   62  A    between atoms: _149  and  _150
REMARK   63  A    between atoms: _153  and  _155
REMARK   64  A    between atoms: _155  and  _156
REMARK   65  A    between atoms: _155  and  _158
REMARK   66  A    between atoms: _158  and  _159
REMARK   67  A    between atoms: _161  and  _163
REMARK   68  A    between atoms: _163  and  _164
REMARK   69  A    between atoms: _163  and  _166
REMARK   70  A    between atoms: _166  and  _167
REMARK   71  A    between atoms: _170  and  _172
REMARK   72  A    between atoms: _172  and  _173
REMARK   73  A    between atoms: _172  and  _175
REMARK   74  A    between atoms: _178  and  _180
REMARK   75  A    between atoms: _180  and  _181
REMARK   76  A    between atoms: _180  and  _183
REMARK   77  A    between atoms: _186  and  _188
REMARK   78  A    between atoms: _188  and  _189
REMARK   79  A    between atoms: _188  and  _191
REMARK   80  A    between atoms: _191  and  _192
REMARK   81  A    between atoms: _196  and  _197
REMARK   82  A    between atoms: _202  and  _204
REMARK   83  A    between atoms: _204  and  _205
REMARK   84  A    between atoms: _204  and  _207
REMARK   85  A    between atoms: _207  and  _208
REMARK   86  A    between atoms: _213  and  _214
REMARK   87  A    between atoms: _216  and  _218
REMARK   88  A    between atoms: _218  and  _219
REMARK   89  A    between atoms: _218  and  _221
REMARK   90  A    between atoms: _221  and  _222
REMARK   91  A    between atoms: _222  and  _223
REMARK   92  A    between atoms: _225  and  _227
REMARK   93  A    between atoms: _227  and  _228
REMARK   94  A    between atoms: _227  and  _230
REMARK   95  A    between atoms: _230  and  _231
REMARK   96  A    between atoms: _231  and  _232
REMARK   97  A    between atoms: _232  and  _233
REMARK   98  A    between atoms: _233  and  _234
REMARK   99  A    between atoms: _238  and  _240
REMARK  100  A    between atoms: _240  and  _241
REMARK  101  A    between atoms: _240  and  _243
REMARK  102  A    between atoms: _243  and  _244
REMARK  103  A    between atoms: _249  and  _251
REMARK  104  A    between atoms: _251  and  _252
REMARK  105  A    between atoms: _254  and  _256
REMARK  106  A    between atoms: _256  and  _257
REMARK  107  A    between atoms: _256  and  _259
REMARK  108  A    between atoms: _259  and  _260
REMARK  109  A    between atoms: _263  and  _265
REMARK  110  A    between atoms: _265  and  _266
REMARK  111  A    between atoms: _265  and  _268
REMARK  112  A    between atoms: _268  and  _269
REMARK  113  A    between atoms: _272  and  _274
REMARK  114  A    between atoms: _274  and  _275
REMARK  115  A    between atoms: _274  and  _277
REMARK  116  A    between atoms: _277  and  _278
REMARK  117  A    between atoms: _278  and  _279
REMARK  118  A    between atoms: _279  and  _280
REMARK  119  A    between atoms: _289  and  _291
REMARK  120  A    between atoms: _291  and  _292
REMARK  121  A    between atoms: _291  and  _294
REMARK  122  A    between atoms: _294  and  _295
REMARK  123  A    between atoms: _300  and  _302
REMARK  124  A    between atoms: _302  and  _303
REMARK  125  A    between atoms: _302  and  _305
REMARK  126  A    between atoms: _305  and  _306
REMARK  127  A    between atoms: _312  and  _314
REMARK  128  A    between atoms: _314  and  _315
REMARK  129  A    between atoms: _314  and  _317
REMARK  130  A    between atoms: _317  and  _318
REMARK  131  A    between atoms: _323  and  _325
REMARK  132  A    between atoms: _325  and  _326
REMARK  133  A    between atoms: _325  and  _328
REMARK  134  A    between atoms: _328  and  _329
REMARK  135  A    between atoms: _334  and  _336
REMARK  136  A    between atoms: _336  and  _337
REMARK  137  A    between atoms: _336  and  _339
REMARK  138  A    between atoms: _339  and  _340
REMARK  139  A    between atoms: _345  and  _347
REMARK  140  A    between atoms: _347  and  _348
REMARK  141  A    between atoms: _347  and  _350
REMARK  142  A    between atoms: _350  and  _351
REMARK  143  A    between atoms: _354  and  _356
REMARK  144  A    between atoms: _356  and  _357
REMARK  145  A    between atoms: _360  and  _362
REMARK  146  A    between atoms: _362  and  _363
REMARK  147  A    between atoms: _366  and  _368
REMARK  148  A    between atoms: _368  and  _369
REMARK  149  A    between atoms: _368  and  _371
REMARK  150  A    between atoms: _371  and  _372
REMARK  151  A    between atoms: _372  and  _373
REMARK  152  A    between atoms: _373  and  _374
REMARK  153  A    between atoms: _383  and  _385
REMARK  154  A    between atoms: _385  and  _386
REMARK  155  A    between atoms: _385  and  _388
REMARK  156  A    between atoms: _388  and  _389
REMARK  157  A    between atoms: _394  and  _396
REMARK  158  A    between atoms: _396  and  _397
REMARK  159  A    between atoms: _396  and  _399
REMARK  160  A    between atoms: _401  and  _403
REMARK  161  A    between atoms: _403  and  _404
REMARK  162  A    between atoms: _403  and  _406
REMARK  163  A    between atoms: _406  and  _407
REMARK  164  A    between atoms: _407  and  _408
REMARK  165  A    between atoms: _410  and  _412
REMARK  166  A    between atoms: _412  and  _413
REMARK  167  A    between atoms: _412  and  _415
REMARK  168  A    between atoms: _415  and  _416
REMARK  169  A    between atoms: _419  and  _421
REMARK  170  A    between atoms: _421  and  _422
REMARK  171  A    between atoms: _421  and  _424
REMARK  172  A    between atoms: _424  and  _425
REMARK  173  A    between atoms: _428  and  _430
REMARK  174  A    between atoms: _430  and  _431
REMARK  175  A    between atoms: _430  and  _433
REMARK  176  A    between atoms: _433  and  _434
REMARK  177  A    between atoms: _434  and  _435
REMARK  178  A    between atoms: _435  and  _436
REMARK  179  A    between atoms: _436  and  _437
REMARK  180  A    between atoms: _441  and  _443
REMARK  181  A    between atoms: _443  and  _444
REMARK  182  A    between atoms: _443  and  _446
REMARK  183  A    between atoms: _449  and  _451
REMARK  184  A    between atoms: _451  and  _452
REMARK  185  A    between atoms: _455  and  _457
REMARK  186  A    between atoms: _457  and  _458
REMARK  187  A    between atoms: _457  and  _460
REMARK  188  A    between atoms: _460  and  _461
REMARK  189  A    between atoms: _464  and  _466
REMARK  190  A    between atoms: _466  and  _467
REMARK  191  A    between atoms: _466  and  _469
REMARK  192  A    between atoms: _469  and  _470
REMARK  193  A    between atoms: _476  and  _478
REMARK  194  A    between atoms: _478  and  _479
REMARK  195  A    between atoms: _478  and  _481
REMARK  196  A    between atoms: _481  and  _482
REMARK  197  A    between atoms: _485  and  _487
REMARK  198  A    between atoms: _487  and  _488
REMARK  199  A    between atoms: _491  and  _493
REMARK  200  A    between atoms: _493  and  _494
REMARK  201  A    between atoms: _493  and  _496
REMARK  202  A    between atoms: _496  and  _497
REMARK  203  A    between atoms: _497  and  _498
REMARK  204  A    between atoms: _498  and  _499
REMARK  205  A    between atoms: _508  and  _510
REMARK  206  A    between atoms: _510  and  _511
REMARK  207  A    between atoms: _510  and  _513
REMARK  208  A    between atoms: _513  and  _514
REMARK  209  A    between atoms: _517  and  _519
REMARK  210  A    between atoms: _519  and  _520
REMARK  211  A    between atoms: _519  and  _522
REMARK  212  A    between atoms: _522  and  _523
REMARK  213  A    between atoms: _523  and  _524
REMARK  214  A    between atoms: _526  and  _528
REMARK  215  A    between atoms: _528  and  _529
REMARK  216  A    between atoms: _528  and  _531
REMARK  217  A    between atoms: _531  and  _532
REMARK  218  A    between atoms: _537  and  _538
REMARK  219  A    between atoms: _540  and  _542
REMARK  220  A    between atoms: _542  and  _543
REMARK  221  A    between atoms: _542  and  _545
REMARK  222  A    between atoms: _545  and  _546
REMARK  223  A    between atoms: _549  and  _551
REMARK  224  A    between atoms: _551  and  _552
REMARK  225  A    between atoms: _551  and  _554
REMARK  226  A    between atoms: _554  and  _555
REMARK  227  A    between atoms: _560  and  _561
REMARK  228  A    between atoms: _563  and  _565
REMARK  229  A    between atoms: _565  and  _566
REMARK  230  A    between atoms: _565  and  _568
REMARK  231  A    between atoms: _568  and  _569
REMARK  232  A    between atoms: _569  and  _570
REMARK  233  A    between atoms: _570  and  _571
REMARK  234  A    between atoms: _571  and  _572
REMARK                            x       y       z     vdW  Elec       q    Type
REMARK                         _______ _______ _______ _____ _____    ______ ____
ROOT
ATOM      1  CA  HIS A   8      -6.180 -23.919  14.188  0.00  0.00    +0.155 C 
ENDROOT
BRANCH   1   3
ATOM      2  C   LYS A   7      -4.161 -23.933  12.861  0.00  0.00    +0.241 C 
ATOM      3  N   HIS A   8      -4.748 -24.117  14.030  0.00  0.00    -0.297 N 
ATOM      4  H   HIS A   8      -4.178 -24.408  14.850  0.00  0.00    +0.150 HD
ATOM      5  O   LYS A   7      -4.753 -23.464  11.899  0.00  0.00    -0.273 OA
BRANCH   2   6
ATOM      6  CA  LYS A   7      -2.686 -24.344  12.750  0.00  0.00    +0.149 C 
BRANCH   6   9
ATOM      7  C   MET A   6      -1.857 -22.585  14.248  0.00  0.00    +0.241 C 
ATOM      8  O   MET A   6      -2.735 -21.800  13.896  0.00  0.00    -0.273 OA
ATOM      9  N   LYS A   7      -1.802 -23.846  13.811  0.00  0.00    -0.297 N 
ATOM     10  H   LYS A   7      -1.111 -24.496  14.236  0.00  0.00    +0.150 HD
BRANCH   7  11
ATOM     11  CA  MET A   6      -0.772 -22.132  15.243  0.00  0.00    +0.149 C 
BRANCH  11  14
ATOM     12  C   TYR A   5       1.501 -22.001  14.380  0.00  0.00    +0.241 C 
ATOM     13  O   TYR A   5       1.758 -23.147  14.743  0.00  0.00    -0.273 OA
ATOM     14  N   MET A   6       0.314 -21.436  14.558  0.00  0.00    -0.297 N 
ATOM     15  H   MET A   6       0.153 -20.473  14.201  0.00  0.00    +0.150 HD
BRANCH  12  16
ATOM     16  CA  TYR A   5       2.550 -21.163  13.670  0.00  0.00    +0.153 C 
BRANCH  16  19
ATOM     17  C   PRO A   4       4.025 -20.555  15.508  0.00  0.00    +0.241 C 
ATOM     18  O   PRO A   4       3.147 -19.879  16.062  0.00  0.00    -0.273 OA
ATOM     19  N   TYR A   5       3.829 -21.209  14.369  0.00  0.00    -0.297 N 
ATOM     20  H   TYR A   5       4.607 -21.768  13.965  0.00  0.00    +0.150 HD
BRANCH  17  26
ATOM     21  C   LEU A   3       6.029 -18.362  16.167  0.00  0.00    +0.244 C 
ATOM     22  N   PRO A   4       5.782 -19.480  16.869  0.00  0.00    -0.272 N 
ATOM     23  CD  PRO A   4       5.685 -19.671  18.324  0.00  0.00    +0.094 C 
ATOM     24  CG  PRO A   4       5.909 -21.133  18.469  0.00  0.00    +0.024 C 
ATOM     25  CB  PRO A   4       5.388 -21.784  17.214  0.00  0.00    +0.031 C 
ATOM     26  CA  PRO A   4       5.412 -20.693  16.131  0.00  0.00    +0.152 C 
ATOM     27  O   LEU A   3       5.940 -18.323  14.944  0.00  0.00    -0.273 OA
BRANCH  21  28
ATOM     28  CA  LEU A   3       6.419 -17.111  16.946  0.00  0.00    +0.149 C 
BRANCH  28  31
ATOM     29  C   VAL A   2       8.268 -15.627  16.371  0.00  0.00    +0.241 C 
ATOM     30  O   VAL A   2       8.909 -15.903  17.390  0.00  0.00    -0.273 OA
ATOM     31  N   LEU A   3       7.117 -16.202  16.058  0.00  0.00    -0.297 N 
ATOM     32  H   LEU A   3       6.694 -15.992  15.132  0.00  0.00    +0.150 HD
BRANCH  29  33
ATOM     33  CA  VAL A   2       8.764 -14.600  15.364  0.00  0.00    +0.148 C 
BRANCH  33  35
ATOM     34  C   VAL A   1       8.084 -12.277  15.675  0.00  0.00    +0.238 C 
ATOM     35  N   VAL A   2       8.921 -13.273  15.944  0.00  0.00    -0.297 N 
ATOM     36  H   VAL A   2       9.716 -13.099  16.591  0.00  0.00    +0.150 HD
ATOM     37  O   VAL A   1       7.055 -12.407  15.008  0.00  0.00    -0.274 OA
BRANCH  34  38
ATOM     38  CA  VAL A   1       8.445 -10.936  16.262  0.00  0.00    +0.145 C 
BRANCH  38  39
ATOM     39  CB  VAL A   1       7.386 -10.558  17.316  0.00  0.00    +0.025 C 
ATOM     40  CG2 VAL A   1       7.357 -11.611  18.435  0.00  0.00    +0.002 C 
ATOM     41  CG1 VAL A   1       7.662  -9.190  17.872  0.00  0.00    +0.002 C 
ENDBRANCH  38  39
BRANCH  38  42
ATOM     42  N   VAL A   1       8.539  -9.954  15.194  0.00  0.00    -0.238 NA
ATOM     43  H   VAL A   1       7.670  -9.597  14.748  0.00  0.00    +0.142 HD
ENDBRANCH  38  42
ENDBRANCH  34  38
ENDBRANCH  33  35
BRANCH  33  44
ATOM     44  CB  VAL A   2      10.077 -15.112  14.720  0.00  0.00    +0.027 C 
ATOM     45  CG2 VAL A   2       9.822 -16.449  13.987  0.00  0.00    +0.002 C 
ATOM     46  CG1 VAL A   2      10.642 -14.071  13.766  0.00  0.00    +0.002 C 
ENDBRANCH  33  44
ENDBRANCH  29  33
ENDBRANCH  28  31
BRANCH  28  47
ATOM     47  CB  LEU A   3       5.170 -16.404  17.481  0.00  0.00    +0.029 C 
BRANCH  47  48
ATOM     48  CG  LEU A   3       5.474 -15.050  18.128  0.00  0.00    +0.002 C 
ATOM     49  CD2 LEU A   3       5.583 -15.208  19.640  0.00  0.00    +0.000 C 
ATOM     50  CD1 LEU A   3       4.436 -13.986  17.750  0.00  0.00    +0.000 C 
ENDBRANCH  47  48
ENDBRANCH  28  47
ENDBRANCH  21  28
ENDBRANCH  17  26
ENDBRANCH  16  19
BRANCH  16  51
ATOM     51  CB  TYR A   5       2.721 -21.662  12.237  0.00  0.00    +0.055 C 
BRANCH  51  52
ATOM     52  CG  TYR A   5       1.458 -21.592  11.423  0.00  0.00    -0.020 A 
ATOM     53  CD2 TYR A   5       0.716 -22.735  11.167  0.00  0.00    -0.001 A 
ATOM     54  CE2 TYR A   5      -0.437 -22.681  10.425  0.00  0.00    +0.036 A 
ATOM     55  CZ  TYR A   5      -0.868 -21.466   9.925  0.00  0.00    +0.134 A 
ATOM     56  CE1 TYR A   5      -0.157 -20.313  10.167  0.00  0.00    +0.036 A 
ATOM     57  CD1 TYR A   5       1.007 -20.380  10.911  0.00  0.00    -0.001 A 
BRANCH  55  58
ATOM     58  OH  TYR A   5      -2.015 -21.409   9.187  0.00  0.00    -0.506 OA
ATOM     59  HH  TYR A   5      -2.180 -20.474   8.908  0.00  0.00    +0.292 HD
ENDBRANCH  55  58
ENDBRANCH  51  52
ENDBRANCH  16  51
ENDBRANCH  12  16
ENDBRANCH  11  14
BRANCH  11  60
ATOM     60  CB  MET A   6      -1.389 -21.204  16.304  0.00  0.00    +0.041 C 
BRANCH  60  61
ATOM     61  CG  MET A   6      -0.408 -20.729  17.355  0.00  0.00    +0.060 C 
BRANCH  61  62
ATOM     62  SD  MET A   6       0.115 -22.098  18.429  0.00  0.00    -0.139 S 
ATOM     63  CE  MET A   6       1.880 -21.849  18.469  0.00  0.00    +0.069 C 
ENDBRANCH  61  62
ENDBRANCH  60  61
ENDBRANCH  11  60
ENDBRANCH   7  11
ENDBRANCH   6   9
BRANCH   6  64
ATOM     64  CB  LYS A   7      -2.612 -25.873  12.648  0.00  0.00    +0.029 C 
BRANCH  64  65
ATOM     65  CG  LYS A   7      -3.546 -26.446  11.591  0.00  0.00    +0.000 C 
BRANCH  65  66
ATOM     66  CD  LYS A   7      -3.439 -27.965  11.465  0.00  0.00    -0.024 C 
BRANCH  66  67
ATOM     67  CE  LYS A   7      -4.375 -28.493  10.376  0.00  0.00    -0.086 C 
BRANCH  67  68
ATOM     68  NZ  LYS A   7      -4.561 -29.979  10.445  0.00  0.00    +0.380 N 
ATOM     69  HZ1 LYS A   7      -4.968 -30.234  11.367  0.00  0.00    -0.089 HD
ATOM     70  HZ2 LYS A   7      -3.640 -30.448  10.330  0.00  0.00    -0.089 HD
ATOM     71  HZ3 LYS A   7      -5.203 -30.282   9.685  0.00  0.00    -0.089 HD
ENDBRANCH  67  68
ENDBRANCH  66  67
ENDBRANCH  65  66
ENDBRANCH  64  65
ENDBRANCH   6  64
ENDBRANCH   2   6
ENDBRANCH   1   3
BRANCH   1  72
ATOM     72  C   HIS A   8      -6.584 -22.512  14.650  0.00  0.00    +0.241 C 
ATOM     73  O   HIS A   8      -7.755 -22.270  14.965  0.00  0.00    -0.273 OA
ATOM     74  N   GLY A   9      -5.623 -21.585  14.659  0.00  0.00    -0.295 N 
ATOM     75  H   GLY A   9      -4.655 -21.856  14.391  0.00  0.00    +0.150 HD
BRANCH  74  76
ATOM     76  CA  GLY A   9      -5.897 -20.198  15.036  0.00  0.00    +0.176 C 
BRANCH  76  77
ATOM     77  C   GLY A   9      -6.310 -20.078  16.492  0.00  0.00    +0.243 C 
ATOM     78  O   GLY A   9      -5.939 -20.923  17.312  0.00  0.00    -0.273 OA
ATOM     79  N   ASP A  10      -7.086 -19.056  16.833  0.00  0.00    -0.296 N 
ATOM     80  H   ASP A  10      -7.438 -18.395  16.112  0.00  0.00    +0.150 HD
BRANCH  79  81
ATOM     81  CA  ASP A  10      -7.435 -18.878  18.237  0.00  0.00    +0.160 C 
BRANCH  81  82
ATOM     82  C   ASP A  10      -8.542 -19.843  18.670  0.00  0.00    +0.241 C 
ATOM     83  N   LEU A  11      -8.539 -20.181  19.949  0.00  0.00    -0.297 N 
ATOM     84  H   LEU A  11      -7.859 -19.712  20.581  0.00  0.00    +0.150 HD
ATOM     85  O   ASP A  10      -9.365 -20.269  17.862  0.00  0.00    -0.273 OA
BRANCH  83  86
ATOM     86  CA  LEU A  11      -9.443 -21.182  20.522  0.00  0.00    +0.149 C 
BRANCH  86  87
ATOM     87  C   LEU A  11     -10.941 -20.862  20.372  0.00  0.00    +0.241 C 
ATOM     88  N   ARG A  12     -11.307 -19.599  20.600  0.00  0.00    -0.297 N 
ATOM     89  H   ARG A  12     -10.597 -18.910  20.920  0.00  0.00    +0.150 HD
ATOM     90  O   LEU A  11     -11.759 -21.751  20.069  0.00  0.00    -0.273 OA
BRANCH  88  91
ATOM     91  CA  ARG A  12     -12.688 -19.170  20.408  0.00  0.00    +0.149 C 
BRANCH  91  92
ATOM     92  C   ARG A  12     -13.193 -19.395  18.981  0.00  0.00    +0.241 C 
ATOM     93  O   ARG A  12     -14.315 -19.876  18.781  0.00  0.00    -0.273 OA
ATOM     94  N   ASN A  13     -12.387 -19.013  17.988  0.00  0.00    -0.297 N 
ATOM     95  H   ASN A  13     -11.462 -18.589  18.202  0.00  0.00    +0.150 HD
BRANCH  94  96
ATOM     96  CA  ASN A  13     -12.805 -19.190  16.603  0.00  0.00    +0.158 C 
BRANCH  96  97
ATOM     97  C   ASN A  13     -12.831 -20.662  16.231  0.00  0.00    +0.241 C 
ATOM     98  N   PHE A  14     -11.921 -21.439  16.802  0.00  0.00    -0.298 N 
ATOM     99  H   PHE A  14     -11.196 -21.032  17.427  0.00  0.00    +0.150 HD
ATOM    100  O   ASN A  13     -13.658 -21.087  15.427  0.00  0.00    -0.273 OA
BRANCH  98 101
ATOM    101  CA  PHE A  14     -11.952 -22.879  16.540  0.00  0.00    +0.141 C 
BRANCH 101 102
ATOM    102  C   PHE A  14     -13.257 -23.492  17.042  0.00  0.00    +0.227 C 
ATOM    103  O   PHE A  14     -13.878 -24.264  16.331  0.00  0.00    -0.286 OA
ENDBRANCH 101 102
BRANCH 101 104
ATOM    104  CB  PHE A  14     -10.758 -23.624  17.149  0.00  0.00    +0.054 C 
BRANCH 104 105
ATOM    105  CG  PHE A  14     -10.810 -25.117  16.928  0.00  0.00    -0.020 A 
ATOM    106  CD2 PHE A  14     -11.365 -25.961  17.891  0.00  0.00    -0.004 A 
ATOM    107  CE2 PHE A  14     -11.435 -27.335  17.685  0.00  0.00    -0.000 A 
ATOM    108  CZ  PHE A  14     -10.950 -27.881  16.512  0.00  0.00    -0.000 A 
ATOM    109  CE1 PHE A  14     -10.394 -27.049  15.535  0.00  0.00    -0.000 A 
ATOM    110  CD1 PHE A  14     -10.326 -25.675  15.749  0.00  0.00    -0.004 A 
ENDBRANCH 104 105
ENDBRANCH 101 104
ENDBRANCH  98 101
ENDBRANCH  96  97
BRANCH  96 111
ATOM    111  CB  ASN A  13     -11.921 -18.404  15.624  0.00  0.00    +0.114 C 
BRANCH 111 112
ATOM    112  CG  ASN A  13     -12.315 -16.936  15.532  0.00  0.00    +0.222 C 
ATOM    113  ND2 ASN A  13     -11.335 -16.039  15.673  0.00  0.00    -0.329 N 
ATOM    114 HD21 ASN A  13     -10.355 -16.357  15.813  0.00  0.00    +0.145 HD
ATOM    115 HD22 ASN A  13     -11.552 -15.022  15.643  0.00  0.00    +0.145 HD
ATOM    116  OD1 ASN A  13     -13.493 -16.614  15.364  0.00  0.00    -0.275 OA
ENDBRANCH 111 112
ENDBRANCH  96 111
ENDBRANCH  94  96
ENDBRANCH  91  92
BRANCH  91 117
ATOM    117  CB  ARG A  12     -12.867 -17.693  20.788  0.00  0.00    +0.033 C 
BRANCH 117 118
ATOM    118  CG  ARG A  12     -14.292 -17.217  20.594  0.00  0.00    +0.045 C 
BRANCH 118 119
ATOM    119  CD  ARG A  12     -14.578 -15.887  21.285  0.00  0.00    +0.174 C 
BRANCH 119 120
ATOM    120  NE  ARG A  12     -16.007 -15.604  21.303  0.00  0.00    -0.265 N 
ATOM    121  HE  ARG A  12     -16.578 -16.085  22.027  0.00  0.00    +0.259 HD
ATOM    122  CZ  ARG A  12     -16.646 -14.779  20.468  0.00  0.00    +0.342 C 
ATOM    123  NH2 ARG A  12     -17.963 -14.619  20.595  0.00  0.00    -0.292 N 
ATOM    124 HH21 ARG A  12     -18.480 -15.133  21.337  0.00  0.00    +0.255 HD
ATOM    125 HH22 ARG A  12     -18.474 -13.980  19.952  0.00  0.00    +0.255 HD
ATOM    126  NH1 ARG A  12     -15.995 -14.120  19.520  0.00  0.00    -0.292 N 
ATOM    127 HH11 ARG A  12     -14.967 -14.240  19.415  0.00  0.00    +0.255 HD
ATOM    128 HH12 ARG A  12     -16.512 -13.483  18.881  0.00  0.00    +0.255 HD
ENDBRANCH 119 120
ENDBRANCH 118 119
ENDBRANCH 117 118
ENDBRANCH  91 117
ENDBRANCH  88  91
ENDBRANCH  86  87
BRANCH  86 129
ATOM    129  CB  LEU A  11      -9.103 -21.347  21.998  0.00  0.00    +0.029 C 
BRANCH 129 130
ATOM    130  CG  LEU A  11      -9.784 -22.522  22.676  0.00  0.00    +0.002 C 
ATOM    131  CD2 LEU A  11      -9.336 -22.591  24.111  0.00  0.00    +0.000 C 
ATOM    132  CD1 LEU A  11      -9.465 -23.820  21.915  0.00  0.00    +0.000 C 
ENDBRANCH 129 130
ENDBRANCH  86 129
ENDBRANCH  83  86
ENDBRANCH  81  82
BRANCH  81 133
ATOM    133  CB  ASP A  10      -7.799 -17.425  18.556  0.00  0.00    +0.143 C 
BRANCH 133 134
ATOM    134  CG  ASP A  10      -9.133 -17.018  17.973  0.00  0.00    +0.367 C 
ATOM    135  OD2 ASP A  10     -10.140 -17.125  18.698  0.00  0.00    -0.246 OA
ATOM    136  OD1 ASP A  10      -9.182 -16.608  16.794  0.00  0.00    -0.246 OA
ENDBRANCH 133 134
ENDBRANCH  81 133
ENDBRANCH  79  81
ENDBRANCH  76  77
ENDBRANCH  74  76
ENDBRANCH   1  72
BRANCH   1 137
ATOM    137  CB  HIS A   8      -6.759 -25.015  15.089  0.00  0.00    +0.076 C 
BRANCH 137 138
ATOM    138  CG  HIS A   8      -6.590 -26.390  14.520  0.00  0.00    +0.082 A 
ATOM    139  CD2 HIS A   8      -5.936 -27.479  14.990  0.00  0.00    +0.115 A 
ATOM    140  NE2 HIS A   8      -6.075 -28.472  14.051  0.00  0.00    -0.221 NA
ATOM    141  CE1 HIS A   8      -6.779 -28.007  13.034  0.00  0.00    +0.199 A 
ATOM    142  ND1 HIS A   8      -7.097 -26.751  13.288  0.00  0.00    -0.227 NA
ENDBRANCH 137 138
ENDBRANCH   1 137
TORSDOF 56
REMARK  Name = ../refined-set-2016/4gg7/4gg7_pocket.pdb
REMARK  234 active torsions:
REMARK  status: ('A' for Active; 'I' for Inactive)
REMARK    1  A    between atoms: _1  and  _3
REMARK    2  A    between atoms: _3  and  _4
REMARK    3  A    between atoms: _3  and  _6
REMARK    4  A    between atoms: _9  and  _11
REMARK    5  A    between atoms: _11  and  _12
REMARK    6  A    between atoms: _11  and  _14
REMARK    7  A    between atoms: _14  and  _15
REMARK    8  A    between atoms: _18  and  _20
REMARK    9  A    between atoms: _20  and  _21
REMARK   10  A    between atoms: _23  and  _25
REMARK   11  A    between atoms: _25  and  _26
REMARK   12  A    between atoms: _25  and  _28
REMARK   13  A    between atoms: _28  and  _29
REMARK   14  A    between atoms: _29  and  _30
REMARK   15  A    between atoms: _30  and  _31
REMARK   16  A    between atoms: _40  and  _42
REMARK   17  A    between atoms: _42  and  _43
REMARK   18  A    between atoms: _45  and  _47
REMARK   19  A    between atoms: _47  and  _48
REMARK   20  A    between atoms: _50  and  _52
REMARK   21  A    between atoms: _52  and  _53
REMARK   22  A    between atoms: _52  and  _55
REMARK   23  A    between atoms: _57  and  _59
REMARK   24  A    between atoms: _59  and  _60
REMARK   25  A    between atoms: _59  and  _62
REMARK   26  A    between atoms: _65  and  _67
REMARK   27  A    between atoms: _67  and  _68
REMARK   28  A    between atoms: _67  and  _70
REMARK   29  A    between atoms: _70  and  _71
REMARK   30  A    between atoms: _76  and  _77
REMARK   31  A    between atoms: _79  and  _81
REMARK   32  A    between atoms: _81  and  _82
REMARK   33  A    between atoms: _81  and  _84
REMARK   34  A    between atoms: _84  and  _85
REMARK   35  A    between atoms: _90  and  _92
REMARK   36  A    between atoms: _92  and  _93
REMARK   37  A    between atoms: _92  and  _95
REMARK   38  A    between atoms: _95  and  _96
REMARK   39  A    between atoms: _101  and  _103
REMARK   40  A    between atoms: _103  and  _104
REMARK   41  A    between atoms: _103  and  _106
REMARK   42  A    between atoms: _108  and  _110
REMARK   43  A    between atoms: _110  and  _111
REMARK   44  A    between atoms: _114  and  _116
REMARK   45  A    between atoms: _116  and  _117
REMARK   46  A    between atoms: _116  and  _119
REMARK   47  A    between atoms: _122  and  _124
REMARK   48  A    between atoms: _124  and  _125
REMARK   49  A    between atoms: _124  and  _127
REMARK   50  A    between atoms: _127  and  _128
REMARK   51  A    between atoms: _128  and  _129
REMARK   52  A    between atoms: _129  and  _130
REMARK   53  A    between atoms: _130  and  _131
REMARK   54  A    between atoms: _135  and  _137
REMARK   55  A    between atoms: _137  and  _138
REMARK   56  A    between atoms: _137  and  _140
REMARK   57  A    between atoms: _140  and  _141
REMARK   58  A    between atoms: _141  and  _142
REMARK   59  A    between atoms: _144  and  _146
REMARK   60  A    between atoms: _146  and  _147
REMARK   61  A    between atoms: _146  and  _149
REMARK   62  A    between atoms: _149  and  _150
REMARK   63  A    between atoms: _153  and  _155
REMARK   64  A    between atoms: _155  and  _156
REMARK   65  A    between atoms: _155  and  _158
REMARK   66  A    between atoms: _158  and  _159
REMARK   67  A    between atoms: _161  and  _163
REMARK   68  A    between atoms: _163  and  _164
REMARK   69  A    between atoms: _163  and  _166
REMARK   70  A    between atoms: _166  and  _167
REMARK   71  A    between atoms: _170  and  _172
REMARK   72  A    between atoms: _172  and  _173
REMARK   73  A    between atoms: _172  and  _175
REMARK   74  A    between atoms: _178  and  _180
REMARK   75  A    between atoms: _180  and  _181
REMARK   76  A    between atoms: _180  and  _183
REMARK   77  A    between atoms: _186  and  _188
REMARK   78  A    between atoms: _188  and  _189
REMARK   79  A    between atoms: _188  and  _191
REMARK   80  A    between atoms: _191  and  _192
REMARK   81  A    between atoms: _196  and  _197
REMARK   82  A    between atoms: _202  and  _204
REMARK   83  A    between atoms: _204  and  _205
REMARK   84  A    between atoms: _204  and  _207
REMARK   85  A    between atoms: _207  and  _208
REMARK   86  A    between atoms: _213  and  _214
REMARK   87  A    between atoms: _216  and  _218
REMARK   88  A    between atoms: _218  and  _219
REMARK   89  A    between atoms: _218  and  _221
REMARK   90  A    between atoms: _221  and  _222
REMARK   91  A    between atoms: _222  and  _223
REMARK   92  A    between atoms: _225  and  _227
REMARK   93  A    between atoms: _227  and  _228
REMARK   94  A    between atoms: _227  and  _230
REMARK   95  A    between atoms: _230  and  _231
REMARK   96  A    between atoms: _231  and  _232
REMARK   97  A    between atoms: _232  and  _233
REMARK   98  A    between atoms: _233  and  _234
REMARK   99  A    between atoms: _238  and  _240
REMARK  100  A    between atoms: _240  and  _241
REMARK  101  A    between atoms: _240  and  _243
REMARK  102  A    between atoms: _243  and  _244
REMARK  103  A    between atoms: _249  and  _251
REMARK  104  A    between atoms: _251  and  _252
REMARK  105  A    between atoms: _254  and  _256
REMARK  106  A    between atoms: _256  and  _257
REMARK  107  A    between atoms: _256  and  _259
REMARK  108  A    between atoms: _259  and  _260
REMARK  109  A    between atoms: _263  and  _265
REMARK  110  A    between atoms: _265  and  _266
REMARK  111  A    between atoms: _265  and  _268
REMARK  112  A    between atoms: _268  and  _269
REMARK  113  A    between atoms: _272  and  _274
REMARK  114  A    between atoms: _274  and  _275
REMARK  115  A    between atoms: _274  and  _277
REMARK  116  A    between atoms: _277  and  _278
REMARK  117  A    between atoms: _278  and  _279
REMARK  118  A    between atoms: _279  and  _280
REMARK  119  A    between atoms: _289  and  _291
REMARK  120  A    between atoms: _291  and  _292
REMARK  121  A    between atoms: _291  and  _294
REMARK  122  A    between atoms: _294  and  _295
REMARK  123  A    between atoms: _300  and  _302
REMARK  124  A    between atoms: _302  and  _303
REMARK  125  A    between atoms: _302  and  _305
REMARK  126  A    between atoms: _305  and  _306
REMARK  127  A    between atoms: _312  and  _314
REMARK  128  A    between atoms: _314  and  _315
REMARK  129  A    between atoms: _314  and  _317
REMARK  130  A    between atoms: _317  and  _318
REMARK  131  A    between atoms: _323  and  _325
REMARK  132  A    between atoms: _325  and  _326
REMARK  133  A    between atoms: _325  and  _328
REMARK  134  A    between atoms: _328  and  _329
REMARK  135  A    between atoms: _334  and  _336
REMARK  136  A    between atoms: _336  and  _337
REMARK  137  A    between atoms: _336  and  _339
REMARK  138  A    between atoms: _339  and  _340
REMARK  139  A    between atoms: _345  and  _347
REMARK  140  A    between atoms: _347  and  _348
REMARK  141  A    between atoms: _347  and  _350
REMARK  142  A    between atoms: _350  and  _351
REMARK  143  A    between atoms: _354  and  _356
REMARK  144  A    between atoms: _356  and  _357
REMARK  145  A    between atoms: _360  and  _362
REMARK  146  A    between atoms: _362  and  _363
REMARK  147  A    between atoms: _366  and  _368
REMARK  148  A    between atoms: _368  and  _369
REMARK  149  A    between atoms: _368  and  _371
REMARK  150  A    between atoms: _371  and  _372
REMARK  151  A    between atoms: _372  and  _373
REMARK  152  A    between atoms: _373  and  _374
REMARK  153  A    between atoms: _383  and  _385
REMARK  154  A    between atoms: _385  and  _386
REMARK  155  A    between atoms: _385  and  _388
REMARK  156  A    between atoms: _388  and  _389
REMARK  157  A    between atoms: _394  and  _396
REMARK  158  A    between atoms: _396  and  _397
REMARK  159  A    between atoms: _396  and  _399
REMARK  160  A    between atoms: _401  and  _403
REMARK  161  A    between atoms: _403  and  _404
REMARK  162  A    between atoms: _403  and  _406
REMARK  163  A    between atoms: _406  and  _407
REMARK  164  A    between atoms: _407  and  _408
REMARK  165  A    between atoms: _410  and  _412
REMARK  166  A    between atoms: _412  and  _413
REMARK  167  A    between atoms: _412  and  _415
REMARK  168  A    between atoms: _415  and  _416
REMARK  169  A    between atoms: _419  and  _421
REMARK  170  A    between atoms: _421  and  _422
REMARK  171  A    between atoms: _421  and  _424
REMARK  172  A    between atoms: _424  and  _425
REMARK  173  A    between atoms: _428  and  _430
REMARK  174  A    between atoms: _430  and  _431
REMARK  175  A    between atoms: _430  and  _433
REMARK  176  A    between atoms: _433  and  _434
REMARK  177  A    between atoms: _434  and  _435
REMARK  178  A    between atoms: _435  and  _436
REMARK  179  A    between atoms: _436  and  _437
REMARK  180  A    between atoms: _441  and  _443
REMARK  181  A    between atoms: _443  and  _444
REMARK  182  A    between atoms: _443  and  _446
REMARK  183  A    between atoms: _449  and  _451
REMARK  184  A    between atoms: _451  and  _452
REMARK  185  A    between atoms: _455  and  _457
REMARK  186  A    between atoms: _457  and  _458
REMARK  187  A    between atoms: _457  and  _460
REMARK  188  A    between atoms: _460  and  _461
REMARK  189  A    between atoms: _464  and  _466
REMARK  190  A    between atoms: _466  and  _467
REMARK  191  A    between atoms: _466  and  _469
REMARK  192  A    between atoms: _469  and  _470
REMARK  193  A    between atoms: _476  and  _478
REMARK  194  A    between atoms: _478  and  _479
REMARK  195  A    between atoms: _478  and  _481
REMARK  196  A    between atoms: _481  and  _482
REMARK  197  A    between atoms: _485  and  _487
REMARK  198  A    between atoms: _487  and  _488
REMARK  199  A    between atoms: _491  and  _493
REMARK  200  A    between atoms: _493  and  _494
REMARK  201  A    between atoms: _493  and  _496
REMARK  202  A    between atoms: _496  and  _497
REMARK  203  A    between atoms: _497  and  _498
REMARK  204  A    between atoms: _498  and  _499
REMARK  205  A    between atoms: _508  and  _510
REMARK  206  A    between atoms: _510  and  _511
REMARK  207  A    between atoms: _510  and  _513
REMARK  208  A    between atoms: _513  and  _514
REMARK  209  A    between atoms: _517  and  _519
REMARK  210  A    between atoms: _519  and  _520
REMARK  211  A    between atoms: _519  and  _522
REMARK  212  A    between atoms: _522  and  _523
REMARK  213  A    between atoms: _523  and  _524
REMARK  214  A    between atoms: _526  and  _528
REMARK  215  A    between atoms: _528  and  _529
REMARK  216  A    between atoms: _528  and  _531
REMARK  217  A    between atoms: _531  and  _532
REMARK  218  A    between atoms: _537  and  _538
REMARK  219  A    between atoms: _540  and  _542
REMARK  220  A    between atoms: _542  and  _543
REMARK  221  A    between atoms: _542  and  _545
REMARK  222  A    between atoms: _545  and  _546
REMARK  223  A    between atoms: _549  and  _551
REMARK  224  A    between atoms: _551  and  _552
REMARK  225  A    between atoms: _551  and  _554
REMARK  226  A    between atoms: _554  and  _555
REMARK  227  A    between atoms: _560  and  _561
REMARK  228  A    between atoms: _563  and  _565
REMARK  229  A    between atoms: _565  and  _566
REMARK  230  A    between atoms: _565  and  _568
REMARK  231  A    between atoms: _568  and  _569
REMARK  232  A    between atoms: _569  and  _570
REMARK  233  A    between atoms: _570  and  _571
REMARK  234  A    between atoms: _571  and  _572
REMARK                            x       y       z     vdW  Elec       q    Type
REMARK                         _______ _______ _______ _____ _____    ______ ____
ROOT
ATOM      1  CB  ASN A   1     -15.390 -23.329  13.245  0.00  0.00    +0.110 C 
ENDROOT
BRANCH   1   2
ATOM      2  CG  ASN A   1     -15.410 -23.572  11.757  0.00  0.00    +0.221 C 
ATOM      3  OD1 ASN A   1     -16.296 -24.262  11.231  0.00  0.00    -0.275 OA
ATOM      4  ND2 ASN A   1     -14.441 -22.980  11.054  0.00  0.00    -0.329 N 
ATOM      5 HD21 ASN A   1     -13.719 -22.411  11.540  0.00  0.00    +0.145 HD
ATOM      6 HD22 ASN A   1     -14.408 -23.088  10.020  0.00  0.00    +0.145 HD
ENDBRANCH   1   2
BRANCH   1   7
ATOM      7  CA  ASN A   1     -16.759 -22.944  13.787  0.00  0.00    +0.142 C 
BRANCH   7   8
ATOM      8  N   ASN A   1     -16.614 -22.415  15.133  0.00  0.00    -0.239 NA
ATOM      9  H   ASN A   1     -15.675 -22.414  15.580  0.00  0.00    +0.142 HD
ENDBRANCH   7   8
BRANCH   7  10
ATOM     10  C   ASN A   1     -17.708 -24.155  13.708  0.00  0.00    +0.225 C 
ATOM     11  O   ASN A   1     -17.407 -25.219  14.248  0.00  0.00    -0.287 OA
ENDBRANCH   7  10
ENDBRANCH   1   7
TORSDOF 4
REMARK  Name = ../refined-set-2016/4gg7/4gg7_pocket.pdb
REMARK  234 active torsions:
REMARK  status: ('A' for Active; 'I' for Inactive)
REMARK    1  A    between atoms: _1  and  _3
REMARK    2  A    between atoms: _3  and  _4
REMARK    3  A    between atoms: _3  and  _6
REMARK    4  A    between atoms: _9  and  _11
REMARK    5  A    between atoms: _11  and  _12
REMARK    6  A    between atoms: _11  and  _14
REMARK    7  A    between atoms: _14  and  _15
REMARK    8  A    between atoms: _18  and  _20
REMARK    9  A    between atoms: _20  and  _21
REMARK   10  A    between atoms: _23  and  _25
REMARK   11  A    between atoms: _25  and  _26
REMARK   12  A    between atoms: _25  and  _28
REMARK   13  A    between atoms: _28  and  _29
REMARK   14  A    between atoms: _29  and  _30
REMARK   15  A    between atoms: _30  and  _31
REMARK   16  A    between atoms: _40  and  _42
REMARK   17  A    between atoms: _42  and  _43
REMARK   18  A    between atoms: _45  and  _47
REMARK   19  A    between atoms: _47  and  _48
REMARK   20  A    between atoms: _50  and  _52
REMARK   21  A    between atoms: _52  and  _53
REMARK   22  A    between atoms: _52  and  _55
REMARK   23  A    between atoms: _57  and  _59
REMARK   24  A    between atoms: _59  and  _60
REMARK   25  A    between atoms: _59  and  _62
REMARK   26  A    between atoms: _65  and  _67
REMARK   27  A    between atoms: _67  and  _68
REMARK   28  A    between atoms: _67  and  _70
REMARK   29  A    between atoms: _70  and  _71
REMARK   30  A    between atoms: _76  and  _77
REMARK   31  A    between atoms: _79  and  _81
REMARK   32  A    between atoms: _81  and  _82
REMARK   33  A    between atoms: _81  and  _84
REMARK   34  A    between atoms: _84  and  _85
REMARK   35  A    between atoms: _90  and  _92
REMARK   36  A    between atoms: _92  and  _93
REMARK   37  A    between atoms: _92  and  _95
REMARK   38  A    between atoms: _95  and  _96
REMARK   39  A    between atoms: _101  and  _103
REMARK   40  A    between atoms: _103  and  _104
REMARK   41  A    between atoms: _103  and  _106
REMARK   42  A    between atoms: _108  and  _110
REMARK   43  A    between atoms: _110  and  _111
REMARK   44  A    between atoms: _114  and  _116
REMARK   45  A    between atoms: _116  and  _117
REMARK   46  A    between atoms: _116  and  _119
REMARK   47  A    between atoms: _122  and  _124
REMARK   48  A    between atoms: _124  and  _125
REMARK   49  A    between atoms: _124  and  _127
REMARK   50  A    between atoms: _127  and  _128
REMARK   51  A    between atoms: _128  and  _129
REMARK   52  A    between atoms: _129  and  _130
REMARK   53  A    between atoms: _130  and  _131
REMARK   54  A    between atoms: _135  and  _137
REMARK   55  A    between atoms: _137  and  _138
REMARK   56  A    between atoms: _137  and  _140
REMARK   57  A    between atoms: _140  and  _141
REMARK   58  A    between atoms: _141  and  _142
REMARK   59  A    between atoms: _144  and  _146
REMARK   60  A    between atoms: _146  and  _147
REMARK   61  A    between atoms: _146  and  _149
REMARK   62  A    between atoms: _149  and  _150
REMARK   63  A    between atoms: _153  and  _155
REMARK   64  A    between atoms: _155  and  _156
REMARK   65  A    between atoms: _155  and  _158
REMARK   66  A    between atoms: _158  and  _159
REMARK   67  A    between atoms: _161  and  _163
REMARK   68  A    between atoms: _163  and  _164
REMARK   69  A    between atoms: _163  and  _166
REMARK   70  A    between atoms: _166  and  _167
REMARK   71  A    between atoms: _170  and  _172
REMARK   72  A    between atoms: _172  and  _173
REMARK   73  A    between atoms: _172  and  _175
REMARK   74  A    between atoms: _178  and  _180
REMARK   75  A    between atoms: _180  and  _181
REMARK   76  A    between atoms: _180  and  _183
REMARK   77  A    between atoms: _186  and  _188
REMARK   78  A    between atoms: _188  and  _189
REMARK   79  A    between atoms: _188  and  _191
REMARK   80  A    between atoms: _191  and  _192
REMARK   81  A    between atoms: _196  and  _197
REMARK   82  A    between atoms: _202  and  _204
REMARK   83  A    between atoms: _204  and  _205
REMARK   84  A    between atoms: _204  and  _207
REMARK   85  A    between atoms: _207  and  _208
REMARK   86  A    between atoms: _213  and  _214
REMARK   87  A    between atoms: _216  and  _218
REMARK   88  A    between atoms: _218  and  _219
REMARK   89  A    between atoms: _218  and  _221
REMARK   90  A    between atoms: _221  and  _222
REMARK   91  A    between atoms: _222  and  _223
REMARK   92  A    between atoms: _225  and  _227
REMARK   93  A    between atoms: _227  and  _228
REMARK   94  A    between atoms: _227  and  _230
REMARK   95  A    between atoms: _230  and  _231
REMARK   96  A    between atoms: _231  and  _232
REMARK   97  A    between atoms: _232  and  _233
REMARK   98  A    between atoms: _233  and  _234
REMARK   99  A    between atoms: _238  and  _240
REMARK  100  A    between atoms: _240  and  _241
REMARK  101  A    between atoms: _240  and  _243
REMARK  102  A    between atoms: _243  and  _244
REMARK  103  A    between atoms: _249  and  _251
REMARK  104  A    between atoms: _251  and  _252
REMARK  105  A    between atoms: _254  and  _256
REMARK  106  A    between atoms: _256  and  _257
REMARK  107  A    between atoms: _256  and  _259
REMARK  108  A    between atoms: _259  and  _260
REMARK  109  A    between atoms: _263  and  _265
REMARK  110  A    between atoms: _265  and  _266
REMARK  111  A    between atoms: _265  and  _268
REMARK  112  A    between atoms: _268  and  _269
REMARK  113  A    between atoms: _272  and  _274
REMARK  114  A    between atoms: _274  and  _275
REMARK  115  A    between atoms: _274  and  _277
REMARK  116  A    between atoms: _277  and  _278
REMARK  117  A    between atoms: _278  and  _279
REMARK  118  A    between atoms: _279  and  _280
REMARK  119  A    between atoms: _289  and  _291
REMARK  120  A    between atoms: _291  and  _292
REMARK  121  A    between atoms: _291  and  _294
REMARK  122  A    between atoms: _294  and  _295
REMARK  123  A    between atoms: _300  and  _302
REMARK  124  A    between atoms: _302  and  _303
REMARK  125  A    between atoms: _302  and  _305
REMARK  126  A    between atoms: _305  and  _306
REMARK  127  A    between atoms: _312  and  _314
REMARK  128  A    between atoms: _314  and  _315
REMARK  129  A    between atoms: _314  and  _317
REMARK  130  A    between atoms: _317  and  _318
REMARK  131  A    between atoms: _323  and  _325
REMARK  132  A    between atoms: _325  and  _326
REMARK  133  A    between atoms: _325  and  _328
REMARK  134  A    between atoms: _328  and  _329
REMARK  135  A    between atoms: _334  and  _336
REMARK  136  A    between atoms: _336  and  _337
REMARK  137  A    between atoms: _336  and  _339
REMARK  138  A    between atoms: _339  and  _340
REMARK  139  A    between atoms: _345  and  _347
REMARK  140  A    between atoms: _347  and  _348
REMARK  141  A    between atoms: _347  and  _350
REMARK  142  A    between atoms: _350  and  _351
REMARK  143  A    between atoms: _354  and  _356
REMARK  144  A    between atoms: _356  and  _357
REMARK  145  A    between atoms: _360  and  _362
REMARK  146  A    between atoms: _362  and  _363
REMARK  147  A    between atoms: _366  and  _368
REMARK  148  A    between atoms: _368  and  _369
REMARK  149  A    between atoms: _368  and  _371
REMARK  150  A    between atoms: _371  and  _372
REMARK  151  A    between atoms: _372  and  _373
REMARK  152  A    between atoms: _373  and  _374
REMARK  153  A    between atoms: _383  and  _385
REMARK  154  A    between atoms: _385  and  _386
REMARK  155  A    between atoms: _385  and  _388
REMARK  156  A    between atoms: _388  and  _389
REMARK  157  A    between atoms: _394  and  _396
REMARK  158  A    between atoms: _396  and  _397
REMARK  159  A    between atoms: _396  and  _399
REMARK  160  A    between atoms: _401  and  _403
REMARK  161  A    between atoms: _403  and  _404
REMARK  162  A    between atoms: _403  and  _406
REMARK  163  A    between atoms: _406  and  _407
REMARK  164  A    between atoms: _407  and  _408
REMARK  165  A    between atoms: _410  and  _412
REMARK  166  A    between atoms: _412  and  _413
REMARK  167  A    between atoms: _412  and  _415
REMARK  168  A    between atoms: _415  and  _416
REMARK  169  A    between atoms: _419  and  _421
REMARK  170  A    between atoms: _421  and  _422
REMARK  171  A    between atoms: _421  and  _424
REMARK  172  A    between atoms: _424  and  _425
REMARK  173  A    between atoms: _428  and  _430
REMARK  174  A    between atoms: _430  and  _431
REMARK  175  A    between atoms: _430  and  _433
REMARK  176  A    between atoms: _433  and  _434
REMARK  177  A    between atoms: _434  and  _435
REMARK  178  A    between atoms: _435  and  _436
REMARK  179  A    between atoms: _436  and  _437
REMARK  180  A    between atoms: _441  and  _443
REMARK  181  A    between atoms: _443  and  _444
REMARK  182  A    between atoms: _443  and  _446
REMARK  183  A    between atoms: _449  and  _451
REMARK  184  A    between atoms: _451  and  _452
REMARK  185  A    between atoms: _455  and  _457
REMARK  186  A    between atoms: _457  and  _458
REMARK  187  A    between atoms: _457  and  _460
REMARK  188  A    between atoms: _460  and  _461
REMARK  189  A    between atoms: _464  and  _466
REMARK  190  A    between atoms: _466  and  _467
REMARK  191  A    between atoms: _466  and  _469
REMARK  192  A    between atoms: _469  and  _470
REMARK  193  A    between atoms: _476  and  _478
REMARK  194  A    between atoms: _478  and  _479
REMARK  195  A    between atoms: _478  and  _481
REMARK  196  A    between atoms: _481  and  _482
REMARK  197  A    between atoms: _485  and  _487
REMARK  198  A    between atoms: _487  and  _488
REMARK  199  A    between atoms: _491  and  _493
REMARK  200  A    between atoms: _493  and  _494
REMARK  201  A    between atoms: _493  and  _496
REMARK  202  A    between atoms: _496  and  _497
REMARK  203  A    between atoms: _497  and  _498
REMARK  204  A    between atoms: _498  and  _499
REMARK  205  A    between atoms: _508  and  _510
REMARK  206  A    between atoms: _510  and  _511
REMARK  207  A    between atoms: _510  and  _513
REMARK  208  A    between atoms: _513  and  _514
REMARK  209  A    between atoms: _517  and  _519
REMARK  210  A    between atoms: _519  and  _520
REMARK  211  A    between atoms: _519  and  _522
REMARK  212  A    between atoms: _522  and  _523
REMARK  213  A    between atoms: _523  and  _524
REMARK  214  A    between atoms: _526  and  _528
REMARK  215  A    between atoms: _528  and  _529
REMARK  216  A    between atoms: _528  and  _531
REMARK  217  A    between atoms: _531  and  _532
REMARK  218  A    between atoms: _537  and  _538
REMARK  219  A    between atoms: _540  and  _542
REMARK  220  A    between atoms: _542  and  _543
REMARK  221  A    between atoms: _542  and  _545
REMARK  222  A    between atoms: _545  and  _546
REMARK  223  A    between atoms: _549  and  _551
REMARK  224  A    between atoms: _551  and  _552
REMARK  225  A    between atoms: _551  and  _554
REMARK  226  A    between atoms: _554  and  _555
REMARK  227  A    between atoms: _560  and  _561
REMARK  228  A    between atoms: _563  and  _565
REMARK  229  A    between atoms: _565  and  _566
REMARK  230  A    between atoms: _565  and  _568
REMARK  231  A    between atoms: _568  and  _569
REMARK  232  A    between atoms: _569  and  _570
REMARK  233  A    between atoms: _570  and  _571
REMARK  234  A    between atoms: _571  and  _572
REMARK                            x       y       z     vdW  Elec       q    Type
REMARK                         _______ _______ _______ _____ _____    ______ ____
ROOT
ATOM      1  CB  HIS A   1     -14.862 -27.600  14.509  0.00  0.00    +0.072 C 
ENDROOT
BRANCH   1   2
ATOM      2  CG  HIS A   1     -13.885 -26.869  13.636  0.00  0.00    +0.082 A 
ATOM      3  ND1 HIS A   1     -13.121 -25.816  14.091  0.00  0.00    -0.227 NA
ATOM      4  CE1 HIS A   1     -12.349 -25.376  13.110  0.00  0.00    +0.199 A 
ATOM      5  NE2 HIS A   1     -12.598 -26.098  12.033  0.00  0.00    -0.221 NA
ATOM      6  CD2 HIS A   1     -13.556 -27.034  12.331  0.00  0.00    +0.115 A 
ENDBRANCH   1   2
BRANCH   1   7
ATOM      7  CA  HIS A   1     -15.824 -28.509  13.740  0.00  0.00    +0.139 C 
BRANCH   7   8
ATOM      8  N   HIS A   1     -16.670 -27.737  12.829  0.00  0.00    -0.239 NA
ATOM      9  H   HIS A   1     -17.054 -26.820  13.136  0.00  0.00    +0.142 HD
ENDBRANCH   7   8
BRANCH   7  10
ATOM     10  C   HIS A   1     -16.702 -29.270  14.725  0.00  0.00    +0.224 C 
ATOM     11  O   HIS A   1     -17.779 -28.791  15.077  0.00  0.00    -0.287 OA
ENDBRANCH   7  10
ENDBRANCH   1   7
TORSDOF 4
REMARK  Name = ../refined-set-2016/4gg7/4gg7_pocket.pdb
REMARK  234 active torsions:
REMARK  status: ('A' for Active; 'I' for Inactive)
REMARK    1  A    between atoms: _1  and  _3
REMARK    2  A    between atoms: _3  and  _4
REMARK    3  A    between atoms: _3  and  _6
REMARK    4  A    between atoms: _9  and  _11
REMARK    5  A    between atoms: _11  and  _12
REMARK    6  A    between atoms: _11  and  _14
REMARK    7  A    between atoms: _14  and  _15
REMARK    8  A    between atoms: _18  and  _20
REMARK    9  A    between atoms: _20  and  _21
REMARK   10  A    between atoms: _23  and  _25
REMARK   11  A    between atoms: _25  and  _26
REMARK   12  A    between atoms: _25  and  _28
REMARK   13  A    between atoms: _28  and  _29
REMARK   14  A    between atoms: _29  and  _30
REMARK   15  A    between atoms: _30  and  _31
REMARK   16  A    between atoms: _40  and  _42
REMARK   17  A    between atoms: _42  and  _43
REMARK   18  A    between atoms: _45  and  _47
REMARK   19  A    between atoms: _47  and  _48
REMARK   20  A    between atoms: _50  and  _52
REMARK   21  A    between atoms: _52  and  _53
REMARK   22  A    between atoms: _52  and  _55
REMARK   23  A    between atoms: _57  and  _59
REMARK   24  A    between atoms: _59  and  _60
REMARK   25  A    between atoms: _59  and  _62
REMARK   26  A    between atoms: _65  and  _67
REMARK   27  A    between atoms: _67  and  _68
REMARK   28  A    between atoms: _67  and  _70
REMARK   29  A    between atoms: _70  and  _71
REMARK   30  A    between atoms: _76  and  _77
REMARK   31  A    between atoms: _79  and  _81
REMARK   32  A    between atoms: _81  and  _82
REMARK   33  A    between atoms: _81  and  _84
REMARK   34  A    between atoms: _84  and  _85
REMARK   35  A    between atoms: _90  and  _92
REMARK   36  A    between atoms: _92  and  _93
REMARK   37  A    between atoms: _92  and  _95
REMARK   38  A    between atoms: _95  and  _96
REMARK   39  A    between atoms: _101  and  _103
REMARK   40  A    between atoms: _103  and  _104
REMARK   41  A    between atoms: _103  and  _106
REMARK   42  A    between atoms: _108  and  _110
REMARK   43  A    between atoms: _110  and  _111
REMARK   44  A    between atoms: _114  and  _116
REMARK   45  A    between atoms: _116  and  _117
REMARK   46  A    between atoms: _116  and  _119
REMARK   47  A    between atoms: _122  and  _124
REMARK   48  A    between atoms: _124  and  _125
REMARK   49  A    between atoms: _124  and  _127
REMARK   50  A    between atoms: _127  and  _128
REMARK   51  A    between atoms: _128  and  _129
REMARK   52  A    between atoms: _129  and  _130
REMARK   53  A    between atoms: _130  and  _131
REMARK   54  A    between atoms: _135  and  _137
REMARK   55  A    between atoms: _137  and  _138
REMARK   56  A    between atoms: _137  and  _140
REMARK   57  A    between atoms: _140  and  _141
REMARK   58  A    between atoms: _141  and  _142
REMARK   59  A    between atoms: _144  and  _146
REMARK   60  A    between atoms: _146  and  _147
REMARK   61  A    between atoms: _146  and  _149
REMARK   62  A    between atoms: _149  and  _150
REMARK   63  A    between atoms: _153  and  _155
REMARK   64  A    between atoms: _155  and  _156
REMARK   65  A    between atoms: _155  and  _158
REMARK   66  A    between atoms: _158  and  _159
REMARK   67  A    between atoms: _161  and  _163
REMARK   68  A    between atoms: _163  and  _164
REMARK   69  A    between atoms: _163  and  _166
REMARK   70  A    between atoms: _166  and  _167
REMARK   71  A    between atoms: _170  and  _172
REMARK   72  A    between atoms: _172  and  _173
REMARK   73  A    between atoms: _172  and  _175
REMARK   74  A    between atoms: _178  and  _180
REMARK   75  A    between atoms: _180  and  _181
REMARK   76  A    between atoms: _180  and  _183
REMARK   77  A    between atoms: _186  and  _188
REMARK   78  A    between atoms: _188  and  _189
REMARK   79  A    between atoms: _188  and  _191
REMARK   80  A    between atoms: _191  and  _192
REMARK   81  A    between atoms: _196  and  _197
REMARK   82  A    between atoms: _202  and  _204
REMARK   83  A    between atoms: _204  and  _205
REMARK   84  A    between atoms: _204  and  _207
REMARK   85  A    between atoms: _207  and  _208
REMARK   86  A    between atoms: _213  and  _214
REMARK   87  A    between atoms: _216  and  _218
REMARK   88  A    between atoms: _218  and  _219
REMARK   89  A    between atoms: _218  and  _221
REMARK   90  A    between atoms: _221  and  _222
REMARK   91  A    between atoms: _222  and  _223
REMARK   92  A    between atoms: _225  and  _227
REMARK   93  A    between atoms: _227  and  _228
REMARK   94  A    between atoms: _227  and  _230
REMARK   95  A    between atoms: _230  and  _231
REMARK   96  A    between atoms: _231  and  _232
REMARK   97  A    between atoms: _232  and  _233
REMARK   98  A    between atoms: _233  and  _234
REMARK   99  A    between atoms: _238  and  _240
REMARK  100  A    between atoms: _240  and  _241
REMARK  101  A    between atoms: _240  and  _243
REMARK  102  A    between atoms: _243  and  _244
REMARK  103  A    between atoms: _249  and  _251
REMARK  104  A    between atoms: _251  and  _252
REMARK  105  A    between atoms: _254  and  _256
REMARK  106  A    between atoms: _256  and  _257
REMARK  107  A    between atoms: _256  and  _259
REMARK  108  A    between atoms: _259  and  _260
REMARK  109  A    between atoms: _263  and  _265
REMARK  110  A    between atoms: _265  and  _266
REMARK  111  A    between atoms: _265  and  _268
REMARK  112  A    between atoms: _268  and  _269
REMARK  113  A    between atoms: _272  and  _274
REMARK  114  A    between atoms: _274  and  _275
REMARK  115  A    between atoms: _274  and  _277
REMARK  116  A    between atoms: _277  and  _278
REMARK  117  A    between atoms: _278  and  _279
REMARK  118  A    between atoms: _279  and  _280
REMARK  119  A    between atoms: _289  and  _291
REMARK  120  A    between atoms: _291  and  _292
REMARK  121  A    between atoms: _291  and  _294
REMARK  122  A    between atoms: _294  and  _295
REMARK  123  A    between atoms: _300  and  _302
REMARK  124  A    between atoms: _302  and  _303
REMARK  125  A    between atoms: _302  and  _305
REMARK  126  A    between atoms: _305  and  _306
REMARK  127  A    between atoms: _312  and  _314
REMARK  128  A    between atoms: _314  and  _315
REMARK  129  A    between atoms: _314  and  _317
REMARK  130  A    between atoms: _317  and  _318
REMARK  131  A    between atoms: _323  and  _325
REMARK  132  A    between atoms: _325  and  _326
REMARK  133  A    between atoms: _325  and  _328
REMARK  134  A    between atoms: _328  and  _329
REMARK  135  A    between atoms: _334  and  _336
REMARK  136  A    between atoms: _336  and  _337
REMARK  137  A    between atoms: _336  and  _339
REMARK  138  A    between atoms: _339  and  _340
REMARK  139  A    between atoms: _345  and  _347
REMARK  140  A    between atoms: _347  and  _348
REMARK  141  A    between atoms: _347  and  _350
REMARK  142  A    between atoms: _350  and  _351
REMARK  143  A    between atoms: _354  and  _356
REMARK  144  A    between atoms: _356  and  _357
REMARK  145  A    between atoms: _360  and  _362
REMARK  146  A    between atoms: _362  and  _363
REMARK  147  A    between atoms: _366  and  _368
REMARK  148  A    between atoms: _368  and  _369
REMARK  149  A    between atoms: _368  and  _371
REMARK  150  A    between atoms: _371  and  _372
REMARK  151  A    between atoms: _372  and  _373
REMARK  152  A    between atoms: _373  and  _374
REMARK  153  A    between atoms: _383  and  _385
REMARK  154  A    between atoms: _385  and  _386
REMARK  155  A    between atoms: _385  and  _388
REMARK  156  A    between atoms: _388  and  _389
REMARK  157  A    between atoms: _394  and  _396
REMARK  158  A    between atoms: _396  and  _397
REMARK  159  A    between atoms: _396  and  _399
REMARK  160  A    between atoms: _401  and  _403
REMARK  161  A    between atoms: _403  and  _404
REMARK  162  A    between atoms: _403  and  _406
REMARK  163  A    between atoms: _406  and  _407
REMARK  164  A    between atoms: _407  and  _408
REMARK  165  A    between atoms: _410  and  _412
REMARK  166  A    between atoms: _412  and  _413
REMARK  167  A    between atoms: _412  and  _415
REMARK  168  A    between atoms: _415  and  _416
REMARK  169  A    between atoms: _419  and  _421
REMARK  170  A    between atoms: _421  and  _422
REMARK  171  A    between atoms: _421  and  _424
REMARK  172  A    between atoms: _424  and  _425
REMARK  173  A    between atoms: _428  and  _430
REMARK  174  A    between atoms: _430  and  _431
REMARK  175  A    between atoms: _430  and  _433
REMARK  176  A    between atoms: _433  and  _434
REMARK  177  A    between atoms: _434  and  _435
REMARK  178  A    between atoms: _435  and  _436
REMARK  179  A    between atoms: _436  and  _437
REMARK  180  A    between atoms: _441  and  _443
REMARK  181  A    between atoms: _443  and  _444
REMARK  182  A    between atoms: _443  and  _446
REMARK  183  A    between atoms: _449  and  _451
REMARK  184  A    between atoms: _451  and  _452
REMARK  185  A    between atoms: _455  and  _457
REMARK  186  A    between atoms: _457  and  _458
REMARK  187  A    between atoms: _457  and  _460
REMARK  188  A    between atoms: _460  and  _461
REMARK  189  A    between atoms: _464  and  _466
REMARK  190  A    between atoms: _466  and  _467
REMARK  191  A    between atoms: _466  and  _469
REMARK  192  A    between atoms: _469  and  _470
REMARK  193  A    between atoms: _476  and  _478
REMARK  194  A    between atoms: _478  and  _479
REMARK  195  A    between atoms: _478  and  _481
REMARK  196  A    between atoms: _481  and  _482
REMARK  197  A    between atoms: _485  and  _487
REMARK  198  A    between atoms: _487  and  _488
REMARK  199  A    between atoms: _491  and  _493
REMARK  200  A    between atoms: _493  and  _494
REMARK  201  A    between atoms: _493  and  _496
REMARK  202  A    between atoms: _496  and  _497
REMARK  203  A    between atoms: _497  and  _498
REMARK  204  A    between atoms: _498  and  _499
REMARK  205  A    between atoms: _508  and  _510
REMARK  206  A    between atoms: _510  and  _511
REMARK  207  A    between atoms: _510  and  _513
REMARK  208  A    between atoms: _513  and  _514
REMARK  209  A    between atoms: _517  and  _519
REMARK  210  A    between atoms: _519  and  _520
REMARK  211  A    between atoms: _519  and  _522
REMARK  212  A    between atoms: _522  and  _523
REMARK  213  A    between atoms: _523  and  _524
REMARK  214  A    between atoms: _526  and  _528
REMARK  215  A    between atoms: _528  and  _529
REMARK  216  A    between atoms: _528  and  _531
REMARK  217  A    between atoms: _531  and  _532
REMARK  218  A    between atoms: _537  and  _538
REMARK  219  A    between atoms: _540  and  _542
REMARK  220  A    between atoms: _542  and  _543
REMARK  221  A    between atoms: _542  and  _545
REMARK  222  A    between atoms: _545  and  _546
REMARK  223  A    between atoms: _549  and  _551
REMARK  224  A    between atoms: _551  and  _552
REMARK  225  A    between atoms: _551  and  _554
REMARK  226  A    between atoms: _554  and  _555
REMARK  227  A    between atoms: _560  and  _561
REMARK  228  A    between atoms: _563  and  _565
REMARK  229  A    between atoms: _565  and  _566
REMARK  230  A    between atoms: _565  and  _568
REMARK  231  A    between atoms: _568  and  _569
REMARK  232  A    between atoms: _569  and  _570
REMARK  233  A    between atoms: _570  and  _571
REMARK  234  A    between atoms: _571  and  _572
REMARK                            x       y       z     vdW  Elec       q    Type
REMARK                         _______ _______ _______ _____ _____    ______ ____
ROOT
ATOM      1  CB  HIS A   1      -2.756 -13.326  32.008  0.00  0.00    +0.072 C 
ENDROOT
BRANCH   1   2
ATOM      2  CG  HIS A   1      -2.763 -13.431  30.514  0.00  0.00    +0.082 A 
ATOM      3  ND1 HIS A   1      -3.622 -12.699  29.723  0.00  0.00    -0.227 NA
ATOM      4  CE1 HIS A   1      -3.390 -12.974  28.452  0.00  0.00    +0.199 A 
ATOM      5  NE2 HIS A   1      -2.399 -13.842  28.386  0.00  0.00    -0.221 NA
ATOM      6  CD2 HIS A   1      -1.981 -14.137  29.662  0.00  0.00    +0.115 A 
ENDBRANCH   1   2
BRANCH   1   7
ATOM      7  CA  HIS A   1      -2.042 -12.072  32.511  0.00  0.00    +0.139 C 
BRANCH   7   8
ATOM      8  N   HIS A   1      -1.727 -12.159  33.928  0.00  0.00    -0.239 NA
ATOM      9  H   HIS A   1      -2.234 -12.840  34.528  0.00  0.00    +0.142 HD
ENDBRANCH   7   8
BRANCH   7  10
ATOM     10  C   HIS A   1      -2.844 -10.829  32.126  0.00  0.00    +0.224 C 
ATOM     11  O   HIS A   1      -2.479 -10.134  31.193  0.00  0.00    -0.287 OA
ENDBRANCH   7  10
ENDBRANCH   1   7
TORSDOF 4
REMARK  Name = ../refined-set-2016/4gg7/4gg7_pocket.pdb
REMARK  234 active torsions:
REMARK  status: ('A' for Active; 'I' for Inactive)
REMARK    1  A    between atoms: _1  and  _3
REMARK    2  A    between atoms: _3  and  _4
REMARK    3  A    between atoms: _3  and  _6
REMARK    4  A    between atoms: _9  and  _11
REMARK    5  A    between atoms: _11  and  _12
REMARK    6  A    between atoms: _11  and  _14
REMARK    7  A    between atoms: _14  and  _15
REMARK    8  A    between atoms: _18  and  _20
REMARK    9  A    between atoms: _20  and  _21
REMARK   10  A    between atoms: _23  and  _25
REMARK   11  A    between atoms: _25  and  _26
REMARK   12  A    between atoms: _25  and  _28
REMARK   13  A    between atoms: _28  and  _29
REMARK   14  A    between atoms: _29  and  _30
REMARK   15  A    between atoms: _30  and  _31
REMARK   16  A    between atoms: _40  and  _42
REMARK   17  A    between atoms: _42  and  _43
REMARK   18  A    between atoms: _45  and  _47
REMARK   19  A    between atoms: _47  and  _48
REMARK   20  A    between atoms: _50  and  _52
REMARK   21  A    between atoms: _52  and  _53
REMARK   22  A    between atoms: _52  and  _55
REMARK   23  A    between atoms: _57  and  _59
REMARK   24  A    between atoms: _59  and  _60
REMARK   25  A    between atoms: _59  and  _62
REMARK   26  A    between atoms: _65  and  _67
REMARK   27  A    between atoms: _67  and  _68
REMARK   28  A    between atoms: _67  and  _70
REMARK   29  A    between atoms: _70  and  _71
REMARK   30  A    between atoms: _76  and  _77
REMARK   31  A    between atoms: _79  and  _81
REMARK   32  A    between atoms: _81  and  _82
REMARK   33  A    between atoms: _81  and  _84
REMARK   34  A    between atoms: _84  and  _85
REMARK   35  A    between atoms: _90  and  _92
REMARK   36  A    between atoms: _92  and  _93
REMARK   37  A    between atoms: _92  and  _95
REMARK   38  A    between atoms: _95  and  _96
REMARK   39  A    between atoms: _101  and  _103
REMARK   40  A    between atoms: _103  and  _104
REMARK   41  A    between atoms: _103  and  _106
REMARK   42  A    between atoms: _108  and  _110
REMARK   43  A    between atoms: _110  and  _111
REMARK   44  A    between atoms: _114  and  _116
REMARK   45  A    between atoms: _116  and  _117
REMARK   46  A    between atoms: _116  and  _119
REMARK   47  A    between atoms: _122  and  _124
REMARK   48  A    between atoms: _124  and  _125
REMARK   49  A    between atoms: _124  and  _127
REMARK   50  A    between atoms: _127  and  _128
REMARK   51  A    between atoms: _128  and  _129
REMARK   52  A    between atoms: _129  and  _130
REMARK   53  A    between atoms: _130  and  _131
REMARK   54  A    between atoms: _135  and  _137
REMARK   55  A    between atoms: _137  and  _138
REMARK   56  A    between atoms: _137  and  _140
REMARK   57  A    between atoms: _140  and  _141
REMARK   58  A    between atoms: _141  and  _142
REMARK   59  A    between atoms: _144  and  _146
REMARK   60  A    between atoms: _146  and  _147
REMARK   61  A    between atoms: _146  and  _149
REMARK   62  A    between atoms: _149  and  _150
REMARK   63  A    between atoms: _153  and  _155
REMARK   64  A    between atoms: _155  and  _156
REMARK   65  A    between atoms: _155  and  _158
REMARK   66  A    between atoms: _158  and  _159
REMARK   67  A    between atoms: _161  and  _163
REMARK   68  A    between atoms: _163  and  _164
REMARK   69  A    between atoms: _163  and  _166
REMARK   70  A    between atoms: _166  and  _167
REMARK   71  A    between atoms: _170  and  _172
REMARK   72  A    between atoms: _172  and  _173
REMARK   73  A    between atoms: _172  and  _175
REMARK   74  A    between atoms: _178  and  _180
REMARK   75  A    between atoms: _180  and  _181
REMARK   76  A    between atoms: _180  and  _183
REMARK   77  A    between atoms: _186  and  _188
REMARK   78  A    between atoms: _188  and  _189
REMARK   79  A    between atoms: _188  and  _191
REMARK   80  A    between atoms: _191  and  _192
REMARK   81  A    between atoms: _196  and  _197
REMARK   82  A    between atoms: _202  and  _204
REMARK   83  A    between atoms: _204  and  _205
REMARK   84  A    between atoms: _204  and  _207
REMARK   85  A    between atoms: _207  and  _208
REMARK   86  A    between atoms: _213  and  _214
REMARK   87  A    between atoms: _216  and  _218
REMARK   88  A    between atoms: _218  and  _219
REMARK   89  A    between atoms: _218  and  _221
REMARK   90  A    between atoms: _221  and  _222
REMARK   91  A    between atoms: _222  and  _223
REMARK   92  A    between atoms: _225  and  _227
REMARK   93  A    between atoms: _227  and  _228
REMARK   94  A    between atoms: _227  and  _230
REMARK   95  A    between atoms: _230  and  _231
REMARK   96  A    between atoms: _231  and  _232
REMARK   97  A    between atoms: _232  and  _233
REMARK   98  A    between atoms: _233  and  _234
REMARK   99  A    between atoms: _238  and  _240
REMARK  100  A    between atoms: _240  and  _241
REMARK  101  A    between atoms: _240  and  _243
REMARK  102  A    between atoms: _243  and  _244
REMARK  103  A    between atoms: _249  and  _251
REMARK  104  A    between atoms: _251  and  _252
REMARK  105  A    between atoms: _254  and  _256
REMARK  106  A    between atoms: _256  and  _257
REMARK  107  A    between atoms: _256  and  _259
REMARK  108  A    between atoms: _259  and  _260
REMARK  109  A    between atoms: _263  and  _265
REMARK  110  A    between atoms: _265  and  _266
REMARK  111  A    between atoms: _265  and  _268
REMARK  112  A    between atoms: _268  and  _269
REMARK  113  A    between atoms: _272  and  _274
REMARK  114  A    between atoms: _274  and  _275
REMARK  115  A    between atoms: _274  and  _277
REMARK  116  A    between atoms: _277  and  _278
REMARK  117  A    between atoms: _278  and  _279
REMARK  118  A    between atoms: _279  and  _280
REMARK  119  A    between atoms: _289  and  _291
REMARK  120  A    between atoms: _291  and  _292
REMARK  121  A    between atoms: _291  and  _294
REMARK  122  A    between atoms: _294  and  _295
REMARK  123  A    between atoms: _300  and  _302
REMARK  124  A    between atoms: _302  and  _303
REMARK  125  A    between atoms: _302  and  _305
REMARK  126  A    between atoms: _305  and  _306
REMARK  127  A    between atoms: _312  and  _314
REMARK  128  A    between atoms: _314  and  _315
REMARK  129  A    between atoms: _314  and  _317
REMARK  130  A    between atoms: _317  and  _318
REMARK  131  A    between atoms: _323  and  _325
REMARK  132  A    between atoms: _325  and  _326
REMARK  133  A    between atoms: _325  and  _328
REMARK  134  A    between atoms: _328  and  _329
REMARK  135  A    between atoms: _334  and  _336
REMARK  136  A    between atoms: _336  and  _337
REMARK  137  A    between atoms: _336  and  _339
REMARK  138  A    between atoms: _339  and  _340
REMARK  139  A    between atoms: _345  and  _347
REMARK  140  A    between atoms: _347  and  _348
REMARK  141  A    between atoms: _347  and  _350
REMARK  142  A    between atoms: _350  and  _351
REMARK  143  A    between atoms: _354  and  _356
REMARK  144  A    between atoms: _356  and  _357
REMARK  145  A    between atoms: _360  and  _362
REMARK  146  A    between atoms: _362  and  _363
REMARK  147  A    between atoms: _366  and  _368
REMARK  148  A    between atoms: _368  and  _369
REMARK  149  A    between atoms: _368  and  _371
REMARK  150  A    between atoms: _371  and  _372
REMARK  151  A    between atoms: _372  and  _373
REMARK  152  A    between atoms: _373  and  _374
REMARK  153  A    between atoms: _383  and  _385
REMARK  154  A    between atoms: _385  and  _386
REMARK  155  A    between atoms: _385  and  _388
REMARK  156  A    between atoms: _388  and  _389
REMARK  157  A    between atoms: _394  and  _396
REMARK  158  A    between atoms: _396  and  _397
REMARK  159  A    between atoms: _396  and  _399
REMARK  160  A    between atoms: _401  and  _403
REMARK  161  A    between atoms: _403  and  _404
REMARK  162  A    between atoms: _403  and  _406
REMARK  163  A    between atoms: _406  and  _407
REMARK  164  A    between atoms: _407  and  _408
REMARK  165  A    between atoms: _410  and  _412
REMARK  166  A    between atoms: _412  and  _413
REMARK  167  A    between atoms: _412  and  _415
REMARK  168  A    between atoms: _415  and  _416
REMARK  169  A    between atoms: _419  and  _421
REMARK  170  A    between atoms: _421  and  _422
REMARK  171  A    between atoms: _421  and  _424
REMARK  172  A    between atoms: _424  and  _425
REMARK  173  A    between atoms: _428  and  _430
REMARK  174  A    between atoms: _430  and  _431
REMARK  175  A    between atoms: _430  and  _433
REMARK  176  A    between atoms: _433  and  _434
REMARK  177  A    between atoms: _434  and  _435
REMARK  178  A    between atoms: _435  and  _436
REMARK  179  A    between atoms: _436  and  _437
REMARK  180  A    between atoms: _441  and  _443
REMARK  181  A    between atoms: _443  and  _444
REMARK  182  A    between atoms: _443  and  _446
REMARK  183  A    between atoms: _449  and  _451
REMARK  184  A    between atoms: _451  and  _452
REMARK  185  A    between atoms: _455  and  _457
REMARK  186  A    between atoms: _457  and  _458
REMARK  187  A    between atoms: _457  and  _460
REMARK  188  A    between atoms: _460  and  _461
REMARK  189  A    between atoms: _464  and  _466
REMARK  190  A    between atoms: _466  and  _467
REMARK  191  A    between atoms: _466  and  _469
REMARK  192  A    between atoms: _469  and  _470
REMARK  193  A    between atoms: _476  and  _478
REMARK  194  A    between atoms: _478  and  _479
REMARK  195  A    between atoms: _478  and  _481
REMARK  196  A    between atoms: _481  and  _482
REMARK  197  A    between atoms: _485  and  _487
REMARK  198  A    between atoms: _487  and  _488
REMARK  199  A    between atoms: _491  and  _493
REMARK  200  A    between atoms: _493  and  _494
REMARK  201  A    between atoms: _493  and  _496
REMARK  202  A    between atoms: _496  and  _497
REMARK  203  A    between atoms: _497  and  _498
REMARK  204  A    between atoms: _498  and  _499
REMARK  205  A    between atoms: _508  and  _510
REMARK  206  A    between atoms: _510  and  _511
REMARK  207  A    between atoms: _510  and  _513
REMARK  208  A    between atoms: _513  and  _514
REMARK  209  A    between atoms: _517  and  _519
REMARK  210  A    between atoms: _519  and  _520
REMARK  211  A    between atoms: _519  and  _522
REMARK  212  A    between atoms: _522  and  _523
REMARK  213  A    between atoms: _523  and  _524
REMARK  214  A    between atoms: _526  and  _528
REMARK  215  A    between atoms: _528  and  _529
REMARK  216  A    between atoms: _528  and  _531
REMARK  217  A    between atoms: _531  and  _532
REMARK  218  A    between atoms: _537  and  _538
REMARK  219  A    between atoms: _540  and  _542
REMARK  220  A    between atoms: _542  and  _543
REMARK  221  A    between atoms: _542  and  _545
REMARK  222  A    between atoms: _545  and  _546
REMARK  223  A    between atoms: _549  and  _551
REMARK  224  A    between atoms: _551  and  _552
REMARK  225  A    between atoms: _551  and  _554
REMARK  226  A    between atoms: _554  and  _555
REMARK  227  A    between atoms: _560  and  _561
REMARK  228  A    between atoms: _563  and  _565
REMARK  229  A    between atoms: _565  and  _566
REMARK  230  A    between atoms: _565  and  _568
REMARK  231  A    between atoms: _568  and  _569
REMARK  232  A    between atoms: _569  and  _570
REMARK  233  A    between atoms: _570  and  _571
REMARK  234  A    between atoms: _571  and  _572
REMARK                            x       y       z     vdW  Elec       q    Type
REMARK                         _______ _______ _______ _____ _____    ______ ____
ROOT
ATOM      1  CA  ASP A   1      -6.646 -10.585  29.567  0.00  0.00    +0.144 C 
ENDROOT
BRANCH   1   2
ATOM      2  N   ASP A   1      -5.693 -10.463  30.669  0.00  0.00    -0.239 NA
ATOM      3  H   ASP A   1      -4.870 -11.097  30.719  0.00  0.00    +0.142 HD
ENDBRANCH   1   2
BRANCH   1   4
ATOM      4  C   ASP A   1      -6.868 -12.053  29.141  0.00  0.00    +0.225 C 
ATOM      5  O   ASP A   1      -6.858 -12.378  27.956  0.00  0.00    -0.287 OA
ENDBRANCH   1   4
BRANCH   1   6
ATOM      6  CB  ASP A   1      -6.185  -9.720  28.383  0.00  0.00    +0.139 C 
BRANCH   6   7
ATOM      7  CG  ASP A   1      -7.238  -9.601  27.295  0.00  0.00    +0.367 C 
ATOM      8  OD2 ASP A   1      -8.424  -9.870  27.579  0.00  0.00    -0.246 OA
ATOM      9  OD1 ASP A   1      -6.870  -9.269  26.137  0.00  0.00    -0.246 OA
ENDBRANCH   6   7
ENDBRANCH   1   6
TORSDOF 4
REMARK  Name = ../refined-set-2016/4gg7/4gg7_pocket.pdb
REMARK  234 active torsions:
REMARK  status: ('A' for Active; 'I' for Inactive)
REMARK    1  A    between atoms: _1  and  _3
REMARK    2  A    between atoms: _3  and  _4
REMARK    3  A    between atoms: _3  and  _6
REMARK    4  A    between atoms: _9  and  _11
REMARK    5  A    between atoms: _11  and  _12
REMARK    6  A    between atoms: _11  and  _14
REMARK    7  A    between atoms: _14  and  _15
REMARK    8  A    between atoms: _18  and  _20
REMARK    9  A    between atoms: _20  and  _21
REMARK   10  A    between atoms: _23  and  _25
REMARK   11  A    between atoms: _25  and  _26
REMARK   12  A    between atoms: _25  and  _28
REMARK   13  A    between atoms: _28  and  _29
REMARK   14  A    between atoms: _29  and  _30
REMARK   15  A    between atoms: _30  and  _31
REMARK   16  A    between atoms: _40  and  _42
REMARK   17  A    between atoms: _42  and  _43
REMARK   18  A    between atoms: _45  and  _47
REMARK   19  A    between atoms: _47  and  _48
REMARK   20  A    between atoms: _50  and  _52
REMARK   21  A    between atoms: _52  and  _53
REMARK   22  A    between atoms: _52  and  _55
REMARK   23  A    between atoms: _57  and  _59
REMARK   24  A    between atoms: _59  and  _60
REMARK   25  A    between atoms: _59  and  _62
REMARK   26  A    between atoms: _65  and  _67
REMARK   27  A    between atoms: _67  and  _68
REMARK   28  A    between atoms: _67  and  _70
REMARK   29  A    between atoms: _70  and  _71
REMARK   30  A    between atoms: _76  and  _77
REMARK   31  A    between atoms: _79  and  _81
REMARK   32  A    between atoms: _81  and  _82
REMARK   33  A    between atoms: _81  and  _84
REMARK   34  A    between atoms: _84  and  _85
REMARK   35  A    between atoms: _90  and  _92
REMARK   36  A    between atoms: _92  and  _93
REMARK   37  A    between atoms: _92  and  _95
REMARK   38  A    between atoms: _95  and  _96
REMARK   39  A    between atoms: _101  and  _103
REMARK   40  A    between atoms: _103  and  _104
REMARK   41  A    between atoms: _103  and  _106
REMARK   42  A    between atoms: _108  and  _110
REMARK   43  A    between atoms: _110  and  _111
REMARK   44  A    between atoms: _114  and  _116
REMARK   45  A    between atoms: _116  and  _117
REMARK   46  A    between atoms: _116  and  _119
REMARK   47  A    between atoms: _122  and  _124
REMARK   48  A    between atoms: _124  and  _125
REMARK   49  A    between atoms: _124  and  _127
REMARK   50  A    between atoms: _127  and  _128
REMARK   51  A    between atoms: _128  and  _129
REMARK   52  A    between atoms: _129  and  _130
REMARK   53  A    between atoms: _130  and  _131
REMARK   54  A    between atoms: _135  and  _137
REMARK   55  A    between atoms: _137  and  _138
REMARK   56  A    between atoms: _137  and  _140
REMARK   57  A    between atoms: _140  and  _141
REMARK   58  A    between atoms: _141  and  _142
REMARK   59  A    between atoms: _144  and  _146
REMARK   60  A    between atoms: _146  and  _147
REMARK   61  A    between atoms: _146  and  _149
REMARK   62  A    between atoms: _149  and  _150
REMARK   63  A    between atoms: _153  and  _155
REMARK   64  A    between atoms: _155  and  _156
REMARK   65  A    between atoms: _155  and  _158
REMARK   66  A    between atoms: _158  and  _159
REMARK   67  A    between atoms: _161  and  _163
REMARK   68  A    between atoms: _163  and  _164
REMARK   69  A    between atoms: _163  and  _166
REMARK   70  A    between atoms: _166  and  _167
REMARK   71  A    between atoms: _170  and  _172
REMARK   72  A    between atoms: _172  and  _173
REMARK   73  A    between atoms: _172  and  _175
REMARK   74  A    between atoms: _178  and  _180
REMARK   75  A    between atoms: _180  and  _181
REMARK   76  A    between atoms: _180  and  _183
REMARK   77  A    between atoms: _186  and  _188
REMARK   78  A    between atoms: _188  and  _189
REMARK   79  A    between atoms: _188  and  _191
REMARK   80  A    between atoms: _191  and  _192
REMARK   81  A    between atoms: _196  and  _197
REMARK   82  A    between atoms: _202  and  _204
REMARK   83  A    between atoms: _204  and  _205
REMARK   84  A    between atoms: _204  and  _207
REMARK   85  A    between atoms: _207  and  _208
REMARK   86  A    between atoms: _213  and  _214
REMARK   87  A    between atoms: _216  and  _218
REMARK   88  A    between atoms: _218  and  _219
REMARK   89  A    between atoms: _218  and  _221
REMARK   90  A    between atoms: _221  and  _222
REMARK   91  A    between atoms: _222  and  _223
REMARK   92  A    between atoms: _225  and  _227
REMARK   93  A    between atoms: _227  and  _228
REMARK   94  A    between atoms: _227  and  _230
REMARK   95  A    between atoms: _230  and  _231
REMARK   96  A    between atoms: _231  and  _232
REMARK   97  A    between atoms: _232  and  _233
REMARK   98  A    between atoms: _233  and  _234
REMARK   99  A    between atoms: _238  and  _240
REMARK  100  A    between atoms: _240  and  _241
REMARK  101  A    between atoms: _240  and  _243
REMARK  102  A    between atoms: _243  and  _244
REMARK  103  A    between atoms: _249  and  _251
REMARK  104  A    between atoms: _251  and  _252
REMARK  105  A    between atoms: _254  and  _256
REMARK  106  A    between atoms: _256  and  _257
REMARK  107  A    between atoms: _256  and  _259
REMARK  108  A    between atoms: _259  and  _260
REMARK  109  A    between atoms: _263  and  _265
REMARK  110  A    between atoms: _265  and  _266
REMARK  111  A    between atoms: _265  and  _268
REMARK  112  A    between atoms: _268  and  _269
REMARK  113  A    between atoms: _272  and  _274
REMARK  114  A    between atoms: _274  and  _275
REMARK  115  A    between atoms: _274  and  _277
REMARK  116  A    between atoms: _277  and  _278
REMARK  117  A    between atoms: _278  and  _279
REMARK  118  A    between atoms: _279  and  _280
REMARK  119  A    between atoms: _289  and  _291
REMARK  120  A    between atoms: _291  and  _292
REMARK  121  A    between atoms: _291  and  _294
REMARK  122  A    between atoms: _294  and  _295
REMARK  123  A    between atoms: _300  and  _302
REMARK  124  A    between atoms: _302  and  _303
REMARK  125  A    between atoms: _302  and  _305
REMARK  126  A    between atoms: _305  and  _306
REMARK  127  A    between atoms: _312  and  _314
REMARK  128  A    between atoms: _314  and  _315
REMARK  129  A    between atoms: _314  and  _317
REMARK  130  A    between atoms: _317  and  _318
REMARK  131  A    between atoms: _323  and  _325
REMARK  132  A    between atoms: _325  and  _326
REMARK  133  A    between atoms: _325  and  _328
REMARK  134  A    between atoms: _328  and  _329
REMARK  135  A    between atoms: _334  and  _336
REMARK  136  A    between atoms: _336  and  _337
REMARK  137  A    between atoms: _336  and  _339
REMARK  138  A    between atoms: _339  and  _340
REMARK  139  A    between atoms: _345  and  _347
REMARK  140  A    between atoms: _347  and  _348
REMARK  141  A    between atoms: _347  and  _350
REMARK  142  A    between atoms: _350  and  _351
REMARK  143  A    between atoms: _354  and  _356
REMARK  144  A    between atoms: _356  and  _357
REMARK  145  A    between atoms: _360  and  _362
REMARK  146  A    between atoms: _362  and  _363
REMARK  147  A    between atoms: _366  and  _368
REMARK  148  A    between atoms: _368  and  _369
REMARK  149  A    between atoms: _368  and  _371
REMARK  150  A    between atoms: _371  and  _372
REMARK  151  A    between atoms: _372  and  _373
REMARK  152  A    between atoms: _373  and  _374
REMARK  153  A    between atoms: _383  and  _385
REMARK  154  A    between atoms: _385  and  _386
REMARK  155  A    between atoms: _385  and  _388
REMARK  156  A    between atoms: _388  and  _389
REMARK  157  A    between atoms: _394  and  _396
REMARK  158  A    between atoms: _396  and  _397
REMARK  159  A    between atoms: _396  and  _399
REMARK  160  A    between atoms: _401  and  _403
REMARK  161  A    between atoms: _403  and  _404
REMARK  162  A    between atoms: _403  and  _406
REMARK  163  A    between atoms: _406  and  _407
REMARK  164  A    between atoms: _407  and  _408
REMARK  165  A    between atoms: _410  and  _412
REMARK  166  A    between atoms: _412  and  _413
REMARK  167  A    between atoms: _412  and  _415
REMARK  168  A    between atoms: _415  and  _416
REMARK  169  A    between atoms: _419  and  _421
REMARK  170  A    between atoms: _421  and  _422
REMARK  171  A    between atoms: _421  and  _424
REMARK  172  A    between atoms: _424  and  _425
REMARK  173  A    between atoms: _428  and  _430
REMARK  174  A    between atoms: _430  and  _431
REMARK  175  A    between atoms: _430  and  _433
REMARK  176  A    between atoms: _433  and  _434
REMARK  177  A    between atoms: _434  and  _435
REMARK  178  A    between atoms: _435  and  _436
REMARK  179  A    between atoms: _436  and  _437
REMARK  180  A    between atoms: _441  and  _443
REMARK  181  A    between atoms: _443  and  _444
REMARK  182  A    between atoms: _443  and  _446
REMARK  183  A    between atoms: _449  and  _451
REMARK  184  A    between atoms: _451  and  _452
REMARK  185  A    between atoms: _455  and  _457
REMARK  186  A    between atoms: _457  and  _458
REMARK  187  A    between atoms: _457  and  _460
REMARK  188  A    between atoms: _460  and  _461
REMARK  189  A    between atoms: _464  and  _466
REMARK  190  A    between atoms: _466  and  _467
REMARK  191  A    between atoms: _466  and  _469
REMARK  192  A    between atoms: _469  and  _470
REMARK  193  A    between atoms: _476  and  _478
REMARK  194  A    between atoms: _478  and  _479
REMARK  195  A    between atoms: _478  and  _481
REMARK  196  A    between atoms: _481  and  _482
REMARK  197  A    between atoms: _485  and  _487
REMARK  198  A    between atoms: _487  and  _488
REMARK  199  A    between atoms: _491  and  _493
REMARK  200  A    between atoms: _493  and  _494
REMARK  201  A    between atoms: _493  and  _496
REMARK  202  A    between atoms: _496  and  _497
REMARK  203  A    between atoms: _497  and  _498
REMARK  204  A    between atoms: _498  and  _499
REMARK  205  A    between atoms: _508  and  _510
REMARK  206  A    between atoms: _510  and  _511
REMARK  207  A    between atoms: _510  and  _513
REMARK  208  A    between atoms: _513  and  _514
REMARK  209  A    between atoms: _517  and  _519
REMARK  210  A    between atoms: _519  and  _520
REMARK  211  A    between atoms: _519  and  _522
REMARK  212  A    between atoms: _522  and  _523
REMARK  213  A    between atoms: _523  and  _524
REMARK  214  A    between atoms: _526  and  _528
REMARK  215  A    between atoms: _528  and  _529
REMARK  216  A    between atoms: _528  and  _531
REMARK  217  A    between atoms: _531  and  _532
REMARK  218  A    between atoms: _537  and  _538
REMARK  219  A    between atoms: _540  and  _542
REMARK  220  A    between atoms: _542  and  _543
REMARK  221  A    between atoms: _542  and  _545
REMARK  222  A    between atoms: _545  and  _546
REMARK  223  A    between atoms: _549  and  _551
REMARK  224  A    between atoms: _551  and  _552
REMARK  225  A    between atoms: _551  and  _554
REMARK  226  A    between atoms: _554  and  _555
REMARK  227  A    between atoms: _560  and  _561
REMARK  228  A    between atoms: _563  and  _565
REMARK  229  A    between atoms: _565  and  _566
REMARK  230  A    between atoms: _565  and  _568
REMARK  231  A    between atoms: _568  and  _569
REMARK  232  A    between atoms: _569  and  _570
REMARK  233  A    between atoms: _570  and  _571
REMARK  234  A    between atoms: _571  and  _572
REMARK                            x       y       z     vdW  Elec       q    Type
REMARK                         _______ _______ _______ _____ _____    ______ ____
ROOT
ATOM      1  CA  ASN A   4      -6.411 -15.144  23.567  0.00  0.00    +0.158 C 
ENDROOT
BRANCH   1   2
ATOM      2  C   ASN A   4      -5.647 -16.441  23.866  0.00  0.00    +0.241 C 
ATOM      3  O   ASN A   4      -4.553 -16.410  24.431  0.00  0.00    -0.273 OA
ATOM      4  N   CYS A   5      -6.230 -17.573  23.502  0.00  0.00    -0.296 N 
ATOM      5  H   CYS A   5      -7.219 -17.566  23.182  0.00  0.00    +0.150 HD
BRANCH   4   6
ATOM      6  CA  CYS A   5      -5.489 -18.835  23.548  0.00  0.00    +0.160 C 
BRANCH   6   7
ATOM      7  C   CYS A   5      -5.439 -19.391  22.144  0.00  0.00    +0.242 C 
ATOM      8  N   MET A   6      -4.304 -19.961  21.772  0.00  0.00    -0.297 N 
ATOM      9  H   MET A   6      -3.509 -20.002  22.441  0.00  0.00    +0.150 HD
ATOM     10  O   CYS A   5      -6.410 -19.278  21.405  0.00  0.00    -0.273 OA
BRANCH   8  11
ATOM     11  CA  MET A   6      -4.150 -20.530  20.445  0.00  0.00    +0.149 C 
BRANCH  11  12
ATOM     12  C   MET A   6      -4.208 -22.053  20.506  0.00  0.00    +0.241 C 
ATOM     13  O   MET A   6      -4.088 -22.646  21.573  0.00  0.00    -0.273 OA
ATOM     14  N   LEU A   7      -4.403 -22.676  19.350  0.00  0.00    -0.297 N 
ATOM     15  H   LEU A   7      -4.450 -22.108  18.480  0.00  0.00    +0.150 HD
BRANCH  14  16
ATOM     16  CA  LEU A   7      -4.554 -24.119  19.248  0.00  0.00    +0.149 C 
BRANCH  16  17
ATOM     17  C   LEU A   7      -3.650 -24.598  18.116  0.00  0.00    +0.241 C 
ATOM     18  N   ASP A   8      -2.605 -25.362  18.430  0.00  0.00    -0.298 N 
ATOM     19  H   ASP A   8      -2.419 -25.613  19.422  0.00  0.00    +0.150 HD
ATOM     20  O   LEU A   7      -3.894 -24.267  16.959  0.00  0.00    -0.273 OA
BRANCH  18  21
ATOM     21  CA  ASP A   8      -1.713 -25.849  17.361  0.00  0.00    +0.148 C 
BRANCH  21  22
ATOM     22  C   ASP A   8      -2.183 -27.157  16.695  0.00  0.00    +0.227 C 
ATOM     23  O   ASP A   8      -3.239 -27.690  17.039  0.00  0.00    -0.286 OA
ENDBRANCH  21  22
BRANCH  21  24
ATOM     24  CB  ASP A   8      -0.231 -25.900  17.796  0.00  0.00    +0.142 C 
BRANCH  24  25
ATOM     25  CG  ASP A   8       0.091 -27.043  18.768  0.00  0.00    +0.367 C 
ATOM     26  OD2 ASP A   8       1.212 -27.008  19.328  0.00  0.00    -0.246 OA
ATOM     27  OD1 ASP A   8      -0.726 -27.969  18.979  0.00  0.00    -0.246 OA
ENDBRANCH  24  25
ENDBRANCH  21  24
ENDBRANCH  18  21
ENDBRANCH  16  17
BRANCH  16  28
ATOM     28  CB  LEU A   7      -6.003 -24.448  18.900  0.00  0.00    +0.029 C 
BRANCH  28  29
ATOM     29  CG  LEU A   7      -6.734 -25.572  19.633  0.00  0.00    +0.002 C 
ATOM     30  CD2 LEU A   7      -5.783 -26.619  20.193  0.00  0.00    +0.000 C 
ATOM     31  CD1 LEU A   7      -7.797 -26.212  18.733  0.00  0.00    +0.000 C 
ENDBRANCH  28  29
ENDBRANCH  16  28
ENDBRANCH  14  16
ENDBRANCH  11  12
BRANCH  11  32
ATOM     32  CB  MET A   6      -2.843 -20.073  19.816  0.00  0.00    +0.041 C 
BRANCH  32  33
ATOM     33  CG  MET A   6      -2.647 -18.560  19.812  0.00  0.00    +0.060 C 
BRANCH  33  34
ATOM     34  SD  MET A   6      -3.831 -17.661  18.796  0.00  0.00    -0.139 S 
ATOM     35  CE  MET A   6      -3.353 -18.262  17.204  0.00  0.00    +0.069 C 
ENDBRANCH  33  34
ENDBRANCH  32  33
ENDBRANCH  11  32
ENDBRANCH   8  11
ENDBRANCH   6   7
BRANCH   6  36
ATOM     36  CB  CYS A   5      -6.167 -19.845  24.475  0.00  0.00    +0.098 C 
ATOM     37  SG  CYS A   5      -6.248 -19.320  26.197  0.00  0.00    -0.080 S 
ENDBRANCH   6  36
ENDBRANCH   4   6
ENDBRANCH   1   2
BRANCH   1  39
ATOM     38  C   ARG A   3      -8.347 -15.209  22.136  0.00  0.00    +0.241 C 
ATOM     39  N   ASN A   4      -7.835 -15.308  23.350  0.00  0.00    -0.297 N 
ATOM     40  H   ASN A   4      -8.460 -15.505  24.158  0.00  0.00    +0.150 HD
ATOM     41  O   ARG A   3      -7.656 -14.955  21.169  0.00  0.00    -0.273 OA
BRANCH  38  42
ATOM     42  CA  ARG A   3      -9.861 -15.421  21.994  0.00  0.00    +0.149 C 
BRANCH  42  44
ATOM     43  C   ALA A   2     -10.130 -17.386  23.432  0.00  0.00    +0.241 C 
ATOM     44  N   ARG A   3     -10.417 -16.110  23.158  0.00  0.00    -0.297 N 
ATOM     45  H   ARG A   3     -11.056 -15.590  23.793  0.00  0.00    +0.150 HD
ATOM     46  O   ALA A   2      -9.401 -18.075  22.711  0.00  0.00    -0.273 OA
BRANCH  43  47
ATOM     47  CA  ALA A   2     -10.763 -17.981  24.701  0.00  0.00    +0.149 C 
ATOM     48  CB  ALA A   2     -12.109 -18.593  24.376  0.00  0.00    +0.031 C 
BRANCH  47  51
ATOM     49  C   ALA A   1      -9.835 -16.401  26.303  0.00  0.00    +0.238 C 
ATOM     50  O   ALA A   1      -8.707 -16.625  25.897  0.00  0.00    -0.274 OA
ATOM     51  N   ALA A   2     -10.899 -17.006  25.794  0.00  0.00    -0.297 N 
ATOM     52  H   ALA A   2     -11.843 -16.788  26.173  0.00  0.00    +0.150 HD
BRANCH  49  53
ATOM     53  CA  ALA A   1     -10.052 -15.390  27.423  0.00  0.00    +0.145 C 
ATOM     54  CB  ALA A   1     -10.492 -14.019  26.840  0.00  0.00    +0.028 C 
BRANCH  53  55
ATOM     55  N   ALA A   1      -8.799 -15.243  28.147  0.00  0.00    -0.238 NA
ATOM     56  H   ALA A   1      -7.953 -15.720  27.776  0.00  0.00    +0.142 HD
ENDBRANCH  53  55
ENDBRANCH  49  53
ENDBRANCH  47  51
ENDBRANCH  43  47
ENDBRANCH  42  44
BRANCH  42  57
ATOM     57  CB  ARG A   3     -10.566 -14.064  21.768  0.00  0.00    +0.033 C 
BRANCH  57  58
ATOM     58  CG  ARG A   3     -10.251 -13.034  22.862  0.00  0.00    +0.045 C 
BRANCH  58  59
ATOM     59  CD  ARG A   3     -10.987 -11.672  22.716  0.00  0.00    +0.174 C 
BRANCH  59  60
ATOM     60  NE  ARG A   3     -10.714 -10.909  23.938  0.00  0.00    -0.265 N 
ATOM     61  CZ  ARG A   3     -11.473 -10.947  25.035  0.00  0.00    +0.342 C 
ATOM     62  NH2 ARG A   3     -11.114 -10.260  26.108  0.00  0.00    -0.292 N 
ATOM     63 HH21 ARG A   3     -11.703 -10.288  26.964  0.00  0.00    +0.255 HD
ATOM     64 HH22 ARG A   3     -10.243  -9.693  26.095  0.00  0.00    +0.255 HD
ATOM     65  NH1 ARG A   3     -12.616 -11.643  25.051  0.00  0.00    -0.292 N 
ATOM     66 HH11 ARG A   3     -13.199 -11.665  25.912  0.00  0.00    +0.255 HD
ATOM     67 HH12 ARG A   3     -12.921 -12.162  24.203  0.00  0.00    +0.255 HD
ATOM     68  HE  ARG A   3      -9.873 -10.297  23.951  0.00  0.00    +0.259 HD
ENDBRANCH  59  60
ENDBRANCH  58  59
ENDBRANCH  57  58
ENDBRANCH  42  57
ENDBRANCH  38  42
ENDBRANCH   1  39
BRANCH   1  69
ATOM     69  CB  ASN A   4      -6.165 -14.104  24.658  0.00  0.00    +0.114 C 
BRANCH  69  70
ATOM     70  CG  ASN A   4      -6.619 -12.719  24.233  0.00  0.00    +0.222 C 
ATOM     71  ND2 ASN A   4      -7.001 -11.888  25.204  0.00  0.00    -0.329 N 
ATOM     72 HD21 ASN A   4      -6.964 -12.196  26.197  0.00  0.00    +0.145 HD
ATOM     73 HD22 ASN A   4      -7.336 -10.932  24.968  0.00  0.00    +0.145 HD
ATOM     74  OD1 ASN A   4      -6.641 -12.407  23.030  0.00  0.00    -0.275 OA
ENDBRANCH  69  70
ENDBRANCH   1  69
TORSDOF 30
REMARK  Name = ../refined-set-2016/4gg7/4gg7_pocket.pdb
REMARK  234 active torsions:
REMARK  status: ('A' for Active; 'I' for Inactive)
REMARK    1  A    between atoms: _1  and  _3
REMARK    2  A    between atoms: _3  and  _4
REMARK    3  A    between atoms: _3  and  _6
REMARK    4  A    between atoms: _9  and  _11
REMARK    5  A    between atoms: _11  and  _12
REMARK    6  A    between atoms: _11  and  _14
REMARK    7  A    between atoms: _14  and  _15
REMARK    8  A    between atoms: _18  and  _20
REMARK    9  A    between atoms: _20  and  _21
REMARK   10  A    between atoms: _23  and  _25
REMARK   11  A    between atoms: _25  and  _26
REMARK   12  A    between atoms: _25  and  _28
REMARK   13  A    between atoms: _28  and  _29
REMARK   14  A    between atoms: _29  and  _30
REMARK   15  A    between atoms: _30  and  _31
REMARK   16  A    between atoms: _40  and  _42
REMARK   17  A    between atoms: _42  and  _43
REMARK   18  A    between atoms: _45  and  _47
REMARK   19  A    between atoms: _47  and  _48
REMARK   20  A    between atoms: _50  and  _52
REMARK   21  A    between atoms: _52  and  _53
REMARK   22  A    between atoms: _52  and  _55
REMARK   23  A    between atoms: _57  and  _59
REMARK   24  A    between atoms: _59  and  _60
REMARK   25  A    between atoms: _59  and  _62
REMARK   26  A    between atoms: _65  and  _67
REMARK   27  A    between atoms: _67  and  _68
REMARK   28  A    between atoms: _67  and  _70
REMARK   29  A    between atoms: _70  and  _71
REMARK   30  A    between atoms: _76  and  _77
REMARK   31  A    between atoms: _79  and  _81
REMARK   32  A    between atoms: _81  and  _82
REMARK   33  A    between atoms: _81  and  _84
REMARK   34  A    between atoms: _84  and  _85
REMARK   35  A    between atoms: _90  and  _92
REMARK   36  A    between atoms: _92  and  _93
REMARK   37  A    between atoms: _92  and  _95
REMARK   38  A    between atoms: _95  and  _96
REMARK   39  A    between atoms: _101  and  _103
REMARK   40  A    between atoms: _103  and  _104
REMARK   41  A    between atoms: _103  and  _106
REMARK   42  A    between atoms: _108  and  _110
REMARK   43  A    between atoms: _110  and  _111
REMARK   44  A    between atoms: _114  and  _116
REMARK   45  A    between atoms: _116  and  _117
REMARK   46  A    between atoms: _116  and  _119
REMARK   47  A    between atoms: _122  and  _124
REMARK   48  A    between atoms: _124  and  _125
REMARK   49  A    between atoms: _124  and  _127
REMARK   50  A    between atoms: _127  and  _128
REMARK   51  A    between atoms: _128  and  _129
REMARK   52  A    between atoms: _129  and  _130
REMARK   53  A    between atoms: _130  and  _131
REMARK   54  A    between atoms: _135  and  _137
REMARK   55  A    between atoms: _137  and  _138
REMARK   56  A    between atoms: _137  and  _140
REMARK   57  A    between atoms: _140  and  _141
REMARK   58  A    between atoms: _141  and  _142
REMARK   59  A    between atoms: _144  and  _146
REMARK   60  A    between atoms: _146  and  _147
REMARK   61  A    between atoms: _146  and  _149
REMARK   62  A    between atoms: _149  and  _150
REMARK   63  A    between atoms: _153  and  _155
REMARK   64  A    between atoms: _155  and  _156
REMARK   65  A    between atoms: _155  and  _158
REMARK   66  A    between atoms: _158  and  _159
REMARK   67  A    between atoms: _161  and  _163
REMARK   68  A    between atoms: _163  and  _164
REMARK   69  A    between atoms: _163  and  _166
REMARK   70  A    between atoms: _166  and  _167
REMARK   71  A    between atoms: _170  and  _172
REMARK   72  A    between atoms: _172  and  _173
REMARK   73  A    between atoms: _172  and  _175
REMARK   74  A    between atoms: _178  and  _180
REMARK   75  A    between atoms: _180  and  _181
REMARK   76  A    between atoms: _180  and  _183
REMARK   77  A    between atoms: _186  and  _188
REMARK   78  A    between atoms: _188  and  _189
REMARK   79  A    between atoms: _188  and  _191
REMARK   80  A    between atoms: _191  and  _192
REMARK   81  A    between atoms: _196  and  _197
REMARK   82  A    between atoms: _202  and  _204
REMARK   83  A    between atoms: _204  and  _205
REMARK   84  A    between atoms: _204  and  _207
REMARK   85  A    between atoms: _207  and  _208
REMARK   86  A    between atoms: _213  and  _214
REMARK   87  A    between atoms: _216  and  _218
REMARK   88  A    between atoms: _218  and  _219
REMARK   89  A    between atoms: _218  and  _221
REMARK   90  A    between atoms: _221  and  _222
REMARK   91  A    between atoms: _222  and  _223
REMARK   92  A    between atoms: _225  and  _227
REMARK   93  A    between atoms: _227  and  _228
REMARK   94  A    between atoms: _227  and  _230
REMARK   95  A    between atoms: _230  and  _231
REMARK   96  A    between atoms: _231  and  _232
REMARK   97  A    between atoms: _232  and  _233
REMARK   98  A    between atoms: _233  and  _234
REMARK   99  A    between atoms: _238  and  _240
REMARK  100  A    between atoms: _240  and  _241
REMARK  101  A    between atoms: _240  and  _243
REMARK  102  A    between atoms: _243  and  _244
REMARK  103  A    between atoms: _249  and  _251
REMARK  104  A    between atoms: _251  and  _252
REMARK  105  A    between atoms: _254  and  _256
REMARK  106  A    between atoms: _256  and  _257
REMARK  107  A    between atoms: _256  and  _259
REMARK  108  A    between atoms: _259  and  _260
REMARK  109  A    between atoms: _263  and  _265
REMARK  110  A    between atoms: _265  and  _266
REMARK  111  A    between atoms: _265  and  _268
REMARK  112  A    between atoms: _268  and  _269
REMARK  113  A    between atoms: _272  and  _274
REMARK  114  A    between atoms: _274  and  _275
REMARK  115  A    between atoms: _274  and  _277
REMARK  116  A    between atoms: _277  and  _278
REMARK  117  A    between atoms: _278  and  _279
REMARK  118  A    between atoms: _279  and  _280
REMARK  119  A    between atoms: _289  and  _291
REMARK  120  A    between atoms: _291  and  _292
REMARK  121  A    between atoms: _291  and  _294
REMARK  122  A    between atoms: _294  and  _295
REMARK  123  A    between atoms: _300  and  _302
REMARK  124  A    between atoms: _302  and  _303
REMARK  125  A    between atoms: _302  and  _305
REMARK  126  A    between atoms: _305  and  _306
REMARK  127  A    between atoms: _312  and  _314
REMARK  128  A    between atoms: _314  and  _315
REMARK  129  A    between atoms: _314  and  _317
REMARK  130  A    between atoms: _317  and  _318
REMARK  131  A    between atoms: _323  and  _325
REMARK  132  A    between atoms: _325  and  _326
REMARK  133  A    between atoms: _325  and  _328
REMARK  134  A    between atoms: _328  and  _329
REMARK  135  A    between atoms: _334  and  _336
REMARK  136  A    between atoms: _336  and  _337
REMARK  137  A    between atoms: _336  and  _339
REMARK  138  A    between atoms: _339  and  _340
REMARK  139  A    between atoms: _345  and  _347
REMARK  140  A    between atoms: _347  and  _348
REMARK  141  A    between atoms: _347  and  _350
REMARK  142  A    between atoms: _350  and  _351
REMARK  143  A    between atoms: _354  and  _356
REMARK  144  A    between atoms: _356  and  _357
REMARK  145  A    between atoms: _360  and  _362
REMARK  146  A    between atoms: _362  and  _363
REMARK  147  A    between atoms: _366  and  _368
REMARK  148  A    between atoms: _368  and  _369
REMARK  149  A    between atoms: _368  and  _371
REMARK  150  A    between atoms: _371  and  _372
REMARK  151  A    between atoms: _372  and  _373
REMARK  152  A    between atoms: _373  and  _374
REMARK  153  A    between atoms: _383  and  _385
REMARK  154  A    between atoms: _385  and  _386
REMARK  155  A    between atoms: _385  and  _388
REMARK  156  A    between atoms: _388  and  _389
REMARK  157  A    between atoms: _394  and  _396
REMARK  158  A    between atoms: _396  and  _397
REMARK  159  A    between atoms: _396  and  _399
REMARK  160  A    between atoms: _401  and  _403
REMARK  161  A    between atoms: _403  and  _404
REMARK  162  A    between atoms: _403  and  _406
REMARK  163  A    between atoms: _406  and  _407
REMARK  164  A    between atoms: _407  and  _408
REMARK  165  A    between atoms: _410  and  _412
REMARK  166  A    between atoms: _412  and  _413
REMARK  167  A    between atoms: _412  and  _415
REMARK  168  A    between atoms: _415  and  _416
REMARK  169  A    between atoms: _419  and  _421
REMARK  170  A    between atoms: _421  and  _422
REMARK  171  A    between atoms: _421  and  _424
REMARK  172  A    between atoms: _424  and  _425
REMARK  173  A    between atoms: _428  and  _430
REMARK  174  A    between atoms: _430  and  _431
REMARK  175  A    between atoms: _430  and  _433
REMARK  176  A    between atoms: _433  and  _434
REMARK  177  A    between atoms: _434  and  _435
REMARK  178  A    between atoms: _435  and  _436
REMARK  179  A    between atoms: _436  and  _437
REMARK  180  A    between atoms: _441  and  _443
REMARK  181  A    between atoms: _443  and  _444
REMARK  182  A    between atoms: _443  and  _446
REMARK  183  A    between atoms: _449  and  _451
REMARK  184  A    between atoms: _451  and  _452
REMARK  185  A    between atoms: _455  and  _457
REMARK  186  A    between atoms: _457  and  _458
REMARK  187  A    between atoms: _457  and  _460
REMARK  188  A    between atoms: _460  and  _461
REMARK  189  A    between atoms: _464  and  _466
REMARK  190  A    between atoms: _466  and  _467
REMARK  191  A    between atoms: _466  and  _469
REMARK  192  A    between atoms: _469  and  _470
REMARK  193  A    between atoms: _476  and  _478
REMARK  194  A    between atoms: _478  and  _479
REMARK  195  A    between atoms: _478  and  _481
REMARK  196  A    between atoms: _481  and  _482
REMARK  197  A    between atoms: _485  and  _487
REMARK  198  A    between atoms: _487  and  _488
REMARK  199  A    between atoms: _491  and  _493
REMARK  200  A    between atoms: _493  and  _494
REMARK  201  A    between atoms: _493  and  _496
REMARK  202  A    between atoms: _496  and  _497
REMARK  203  A    between atoms: _497  and  _498
REMARK  204  A    between atoms: _498  and  _499
REMARK  205  A    between atoms: _508  and  _510
REMARK  206  A    between atoms: _510  and  _511
REMARK  207  A    between atoms: _510  and  _513
REMARK  208  A    between atoms: _513  and  _514
REMARK  209  A    between atoms: _517  and  _519
REMARK  210  A    between atoms: _519  and  _520
REMARK  211  A    between atoms: _519  and  _522
REMARK  212  A    between atoms: _522  and  _523
REMARK  213  A    between atoms: _523  and  _524
REMARK  214  A    between atoms: _526  and  _528
REMARK  215  A    between atoms: _528  and  _529
REMARK  216  A    between atoms: _528  and  _531
REMARK  217  A    between atoms: _531  and  _532
REMARK  218  A    between atoms: _537  and  _538
REMARK  219  A    between atoms: _540  and  _542
REMARK  220  A    between atoms: _542  and  _543
REMARK  221  A    between atoms: _542  and  _545
REMARK  222  A    between atoms: _545  and  _546
REMARK  223  A    between atoms: _549  and  _551
REMARK  224  A    between atoms: _551  and  _552
REMARK  225  A    between atoms: _551  and  _554
REMARK  226  A    between atoms: _554  and  _555
REMARK  227  A    between atoms: _560  and  _561
REMARK  228  A    between atoms: _563  and  _565
REMARK  229  A    between atoms: _565  and  _566
REMARK  230  A    between atoms: _565  and  _568
REMARK  231  A    between atoms: _568  and  _569
REMARK  232  A    between atoms: _569  and  _570
REMARK  233  A    between atoms: _570  and  _571
REMARK  234  A    between atoms: _571  and  _572
REMARK                            x       y       z     vdW  Elec       q    Type
REMARK                         _______ _______ _______ _____ _____    ______ ____
ROOT
ATOM      1  CA  ALA A   3      -0.957 -16.217  24.185  0.00  0.00    +0.149 C 
ATOM      2  CB  ALA A   3      -1.289 -16.323  22.715  0.00  0.00    +0.031 C 
ENDROOT
BRANCH   1   5
ATOM      3  C   VAL A   2      -1.083 -18.140  25.633  0.00  0.00    +0.241 C 
ATOM      4  O   VAL A   2       0.138 -18.214  25.680  0.00  0.00    -0.273 OA
ATOM      5  N   ALA A   3      -1.711 -17.207  24.937  0.00  0.00    -0.297 N 
ATOM      6  H   ALA A   3      -2.751 -17.181  24.928  0.00  0.00    +0.150 HD
BRANCH   3   7
ATOM      7  CA  VAL A   2      -1.948 -19.147  26.363  0.00  0.00    +0.148 C 
BRANCH   7   9
ATOM      8  C   LYS A   1      -1.768 -20.772  24.575  0.00  0.00    +0.238 C 
ATOM      9  N   VAL A   2      -1.572 -20.453  25.853  0.00  0.00    -0.297 N 
ATOM     10  H   VAL A   2      -1.143 -21.150  26.495  0.00  0.00    +0.150 HD
ATOM     11  O   LYS A   1      -2.417 -20.066  23.795  0.00  0.00    -0.274 OA
BRANCH   8  12
ATOM     12  CA  LYS A   1      -1.143 -22.083  24.093  0.00  0.00    +0.145 C 
BRANCH  12  13
ATOM     13  N   LYS A   1      -2.188 -22.992  23.632  0.00  0.00    -0.238 NA
ATOM     14  H   LYS A   1      -2.782 -22.713  22.825  0.00  0.00    +0.142 HD
ENDBRANCH  12  13
BRANCH  12  15
ATOM     15  CB  LYS A   1      -0.159 -21.762  22.969  0.00  0.00    +0.026 C 
BRANCH  15  16
ATOM     16  CG  LYS A   1       0.406 -22.953  22.224  0.00  0.00    -0.000 C 
BRANCH  16  17
ATOM     17  CD  LYS A   1       1.450 -23.687  23.038  0.00  0.00    -0.024 C 
BRANCH  17  18
ATOM     18  CE  LYS A   1       2.263 -24.638  22.156  0.00  0.00    -0.086 C 
BRANCH  18  19
ATOM     19  NZ  LYS A   1       3.272 -25.404  22.938  0.00  0.00    +0.380 N 
ATOM     20  HZ1 LYS A   1       2.789 -25.970  23.665  0.00  0.00    -0.089 HD
ATOM     21  HZ2 LYS A   1       3.931 -24.741  23.394  0.00  0.00    -0.089 HD
ATOM     22  HZ3 LYS A   1       3.798 -26.034  22.300  0.00  0.00    -0.089 HD
ENDBRANCH  18  19
ENDBRANCH  17  18
ENDBRANCH  16  17
ENDBRANCH  15  16
ENDBRANCH  12  15
ENDBRANCH   8  12
ENDBRANCH   7   9
BRANCH   7  23
ATOM     23  CB  VAL A   2      -1.703 -19.020  27.886  0.00  0.00    +0.027 C 
ATOM     24  CG2 VAL A   2      -2.730 -19.819  28.660  0.00  0.00    +0.002 C 
ATOM     25  CG1 VAL A   2      -1.739 -17.546  28.320  0.00  0.00    +0.002 C 
ENDBRANCH   7  23
ENDBRANCH   3   7
ENDBRANCH   1   5
BRANCH   1  26
ATOM     26  C   ALA A   3      -1.211 -14.810  24.727  0.00  0.00    +0.241 C 
ATOM     27  O   ALA A   3      -1.327 -14.637  25.941  0.00  0.00    -0.273 OA
ATOM     28  N   ASP A   4      -1.298 -13.823  23.835  0.00  0.00    -0.297 N 
ATOM     29  H   ASP A   4      -1.221 -14.051  22.823  0.00  0.00    +0.150 HD
BRANCH  28  30
ATOM     30  CA  ASP A   4      -1.497 -12.436  24.232  0.00  0.00    +0.160 C 
BRANCH  30  31
ATOM     31  C   ASP A   4      -0.587 -12.053  25.399  0.00  0.00    +0.241 C 
ATOM     32  O   ASP A   4      -1.048 -11.554  26.424  0.00  0.00    -0.273 OA
ATOM     33  N   PHE A   5       0.704 -12.330  25.275  0.00  0.00    -0.298 N 
ATOM     34  H   PHE A   5       1.054 -12.847  24.443  0.00  0.00    +0.150 HD
BRANCH  33  35
ATOM     35  CA  PHE A   5       1.626 -11.901  26.317  0.00  0.00    +0.141 C 
BRANCH  35  36
ATOM     36  C   PHE A   5       3.045 -11.662  25.782  0.00  0.00    +0.227 C 
ATOM     37  O   PHE A   5       3.428 -12.181  24.730  0.00  0.00    -0.286 OA
ENDBRANCH  35  36
BRANCH  35  38
ATOM     38  CB  PHE A   5       1.616 -12.880  27.497  0.00  0.00    +0.054 C 
BRANCH  38  39
ATOM     39  CG  PHE A   5       2.577 -13.998  27.346  0.00  0.00    -0.020 A 
ATOM     40  CD2 PHE A   5       3.720 -14.044  28.104  0.00  0.00    -0.004 A 
ATOM     41  CE2 PHE A   5       4.619 -15.067  27.942  0.00  0.00    -0.000 A 
ATOM     42  CZ  PHE A   5       4.382 -16.053  27.025  0.00  0.00    -0.000 A 
ATOM     43  CE1 PHE A   5       3.248 -16.018  26.261  0.00  0.00    -0.000 A 
ATOM     44  CD1 PHE A   5       2.350 -14.995  26.420  0.00  0.00    -0.004 A 
ENDBRANCH  38  39
ENDBRANCH  35  38
ENDBRANCH  33  35
ENDBRANCH  30  31
BRANCH  30  45
ATOM     45  CB  ASP A   4      -2.968 -12.172  24.598  0.00  0.00    +0.143 C 
BRANCH  45  46
ATOM     46  CG  ASP A   4      -3.211 -10.729  25.029  0.00  0.00    +0.367 C 
ATOM     47  OD2 ASP A   4      -4.012 -10.488  25.970  0.00  0.00    -0.246 OA
ATOM     48  OD1 ASP A   4      -2.547  -9.842  24.459  0.00  0.00    -0.246 OA
ENDBRANCH  45  46
ENDBRANCH  30  45
ENDBRANCH  28  30
ENDBRANCH   1  26
TORSDOF 20
REMARK  Name = ../refined-set-2016/4gg7/4gg7_pocket.pdb
REMARK  234 active torsions:
REMARK  status: ('A' for Active; 'I' for Inactive)
REMARK    1  A    between atoms: _1  and  _3
REMARK    2  A    between atoms: _3  and  _4
REMARK    3  A    between atoms: _3  and  _6
REMARK    4  A    between atoms: _9  and  _11
REMARK    5  A    between atoms: _11  and  _12
REMARK    6  A    between atoms: _11  and  _14
REMARK    7  A    between atoms: _14  and  _15
REMARK    8  A    between atoms: _18  and  _20
REMARK    9  A    between atoms: _20  and  _21
REMARK   10  A    between atoms: _23  and  _25
REMARK   11  A    between atoms: _25  and  _26
REMARK   12  A    between atoms: _25  and  _28
REMARK   13  A    between atoms: _28  and  _29
REMARK   14  A    between atoms: _29  and  _30
REMARK   15  A    between atoms: _30  and  _31
REMARK   16  A    between atoms: _40  and  _42
REMARK   17  A    between atoms: _42  and  _43
REMARK   18  A    between atoms: _45  and  _47
REMARK   19  A    between atoms: _47  and  _48
REMARK   20  A    between atoms: _50  and  _52
REMARK   21  A    between atoms: _52  and  _53
REMARK   22  A    between atoms: _52  and  _55
REMARK   23  A    between atoms: _57  and  _59
REMARK   24  A    between atoms: _59  and  _60
REMARK   25  A    between atoms: _59  and  _62
REMARK   26  A    between atoms: _65  and  _67
REMARK   27  A    between atoms: _67  and  _68
REMARK   28  A    between atoms: _67  and  _70
REMARK   29  A    between atoms: _70  and  _71
REMARK   30  A    between atoms: _76  and  _77
REMARK   31  A    between atoms: _79  and  _81
REMARK   32  A    between atoms: _81  and  _82
REMARK   33  A    between atoms: _81  and  _84
REMARK   34  A    between atoms: _84  and  _85
REMARK   35  A    between atoms: _90  and  _92
REMARK   36  A    between atoms: _92  and  _93
REMARK   37  A    between atoms: _92  and  _95
REMARK   38  A    between atoms: _95  and  _96
REMARK   39  A    between atoms: _101  and  _103
REMARK   40  A    between atoms: _103  and  _104
REMARK   41  A    between atoms: _103  and  _106
REMARK   42  A    between atoms: _108  and  _110
REMARK   43  A    between atoms: _110  and  _111
REMARK   44  A    between atoms: _114  and  _116
REMARK   45  A    between atoms: _116  and  _117
REMARK   46  A    between atoms: _116  and  _119
REMARK   47  A    between atoms: _122  and  _124
REMARK   48  A    between atoms: _124  and  _125
REMARK   49  A    between atoms: _124  and  _127
REMARK   50  A    between atoms: _127  and  _128
REMARK   51  A    between atoms: _128  and  _129
REMARK   52  A    between atoms: _129  and  _130
REMARK   53  A    between atoms: _130  and  _131
REMARK   54  A    between atoms: _135  and  _137
REMARK   55  A    between atoms: _137  and  _138
REMARK   56  A    between atoms: _137  and  _140
REMARK   57  A    between atoms: _140  and  _141
REMARK   58  A    between atoms: _141  and  _142
REMARK   59  A    between atoms: _144  and  _146
REMARK   60  A    between atoms: _146  and  _147
REMARK   61  A    between atoms: _146  and  _149
REMARK   62  A    between atoms: _149  and  _150
REMARK   63  A    between atoms: _153  and  _155
REMARK   64  A    between atoms: _155  and  _156
REMARK   65  A    between atoms: _155  and  _158
REMARK   66  A    between atoms: _158  and  _159
REMARK   67  A    between atoms: _161  and  _163
REMARK   68  A    between atoms: _163  and  _164
REMARK   69  A    between atoms: _163  and  _166
REMARK   70  A    between atoms: _166  and  _167
REMARK   71  A    between atoms: _170  and  _172
REMARK   72  A    between atoms: _172  and  _173
REMARK   73  A    between atoms: _172  and  _175
REMARK   74  A    between atoms: _178  and  _180
REMARK   75  A    between atoms: _180  and  _181
REMARK   76  A    between atoms: _180  and  _183
REMARK   77  A    between atoms: _186  and  _188
REMARK   78  A    between atoms: _188  and  _189
REMARK   79  A    between atoms: _188  and  _191
REMARK   80  A    between atoms: _191  and  _192
REMARK   81  A    between atoms: _196  and  _197
REMARK   82  A    between atoms: _202  and  _204
REMARK   83  A    between atoms: _204  and  _205
REMARK   84  A    between atoms: _204  and  _207
REMARK   85  A    between atoms: _207  and  _208
REMARK   86  A    between atoms: _213  and  _214
REMARK   87  A    between atoms: _216  and  _218
REMARK   88  A    between atoms: _218  and  _219
REMARK   89  A    between atoms: _218  and  _221
REMARK   90  A    between atoms: _221  and  _222
REMARK   91  A    between atoms: _222  and  _223
REMARK   92  A    between atoms: _225  and  _227
REMARK   93  A    between atoms: _227  and  _228
REMARK   94  A    between atoms: _227  and  _230
REMARK   95  A    between atoms: _230  and  _231
REMARK   96  A    between atoms: _231  and  _232
REMARK   97  A    between atoms: _232  and  _233
REMARK   98  A    between atoms: _233  and  _234
REMARK   99  A    between atoms: _238  and  _240
REMARK  100  A    between atoms: _240  and  _241
REMARK  101  A    between atoms: _240  and  _243
REMARK  102  A    between atoms: _243  and  _244
REMARK  103  A    between atoms: _249  and  _251
REMARK  104  A    between atoms: _251  and  _252
REMARK  105  A    between atoms: _254  and  _256
REMARK  106  A    between atoms: _256  and  _257
REMARK  107  A    between atoms: _256  and  _259
REMARK  108  A    between atoms: _259  and  _260
REMARK  109  A    between atoms: _263  and  _265
REMARK  110  A    between atoms: _265  and  _266
REMARK  111  A    between atoms: _265  and  _268
REMARK  112  A    between atoms: _268  and  _269
REMARK  113  A    between atoms: _272  and  _274
REMARK  114  A    between atoms: _274  and  _275
REMARK  115  A    between atoms: _274  and  _277
REMARK  116  A    between atoms: _277  and  _278
REMARK  117  A    between atoms: _278  and  _279
REMARK  118  A    between atoms: _279  and  _280
REMARK  119  A    between atoms: _289  and  _291
REMARK  120  A    between atoms: _291  and  _292
REMARK  121  A    between atoms: _291  and  _294
REMARK  122  A    between atoms: _294  and  _295
REMARK  123  A    between atoms: _300  and  _302
REMARK  124  A    between atoms: _302  and  _303
REMARK  125  A    between atoms: _302  and  _305
REMARK  126  A    between atoms: _305  and  _306
REMARK  127  A    between atoms: _312  and  _314
REMARK  128  A    between atoms: _314  and  _315
REMARK  129  A    between atoms: _314  and  _317
REMARK  130  A    between atoms: _317  and  _318
REMARK  131  A    between atoms: _323  and  _325
REMARK  132  A    between atoms: _325  and  _326
REMARK  133  A    between atoms: _325  and  _328
REMARK  134  A    between atoms: _328  and  _329
REMARK  135  A    between atoms: _334  and  _336
REMARK  136  A    between atoms: _336  and  _337
REMARK  137  A    between atoms: _336  and  _339
REMARK  138  A    between atoms: _339  and  _340
REMARK  139  A    between atoms: _345  and  _347
REMARK  140  A    between atoms: _347  and  _348
REMARK  141  A    between atoms: _347  and  _350
REMARK  142  A    between atoms: _350  and  _351
REMARK  143  A    between atoms: _354  and  _356
REMARK  144  A    between atoms: _356  and  _357
REMARK  145  A    between atoms: _360  and  _362
REMARK  146  A    between atoms: _362  and  _363
REMARK  147  A    between atoms: _366  and  _368
REMARK  148  A    between atoms: _368  and  _369
REMARK  149  A    between atoms: _368  and  _371
REMARK  150  A    between atoms: _371  and  _372
REMARK  151  A    between atoms: _372  and  _373
REMARK  152  A    between atoms: _373  and  _374
REMARK  153  A    between atoms: _383  and  _385
REMARK  154  A    between atoms: _385  and  _386
REMARK  155  A    between atoms: _385  and  _388
REMARK  156  A    between atoms: _388  and  _389
REMARK  157  A    between atoms: _394  and  _396
REMARK  158  A    between atoms: _396  and  _397
REMARK  159  A    between atoms: _396  and  _399
REMARK  160  A    between atoms: _401  and  _403
REMARK  161  A    between atoms: _403  and  _404
REMARK  162  A    between atoms: _403  and  _406
REMARK  163  A    between atoms: _406  and  _407
REMARK  164  A    between atoms: _407  and  _408
REMARK  165  A    between atoms: _410  and  _412
REMARK  166  A    between atoms: _412  and  _413
REMARK  167  A    between atoms: _412  and  _415
REMARK  168  A    between atoms: _415  and  _416
REMARK  169  A    between atoms: _419  and  _421
REMARK  170  A    between atoms: _421  and  _422
REMARK  171  A    between atoms: _421  and  _424
REMARK  172  A    between atoms: _424  and  _425
REMARK  173  A    between atoms: _428  and  _430
REMARK  174  A    between atoms: _430  and  _431
REMARK  175  A    between atoms: _430  and  _433
REMARK  176  A    between atoms: _433  and  _434
REMARK  177  A    between atoms: _434  and  _435
REMARK  178  A    between atoms: _435  and  _436
REMARK  179  A    between atoms: _436  and  _437
REMARK  180  A    between atoms: _441  and  _443
REMARK  181  A    between atoms: _443  and  _444
REMARK  182  A    between atoms: _443  and  _446
REMARK  183  A    between atoms: _449  and  _451
REMARK  184  A    between atoms: _451  and  _452
REMARK  185  A    between atoms: _455  and  _457
REMARK  186  A    between atoms: _457  and  _458
REMARK  187  A    between atoms: _457  and  _460
REMARK  188  A    between atoms: _460  and  _461
REMARK  189  A    between atoms: _464  and  _466
REMARK  190  A    between atoms: _466  and  _467
REMARK  191  A    between atoms: _466  and  _469
REMARK  192  A    between atoms: _469  and  _470
REMARK  193  A    between atoms: _476  and  _478
REMARK  194  A    between atoms: _478  and  _479
REMARK  195  A    between atoms: _478  and  _481
REMARK  196  A    between atoms: _481  and  _482
REMARK  197  A    between atoms: _485  and  _487
REMARK  198  A    between atoms: _487  and  _488
REMARK  199  A    between atoms: _491  and  _493
REMARK  200  A    between atoms: _493  and  _494
REMARK  201  A    between atoms: _493  and  _496
REMARK  202  A    between atoms: _496  and  _497
REMARK  203  A    between atoms: _497  and  _498
REMARK  204  A    between atoms: _498  and  _499
REMARK  205  A    between atoms: _508  and  _510
REMARK  206  A    between atoms: _510  and  _511
REMARK  207  A    between atoms: _510  and  _513
REMARK  208  A    between atoms: _513  and  _514
REMARK  209  A    between atoms: _517  and  _519
REMARK  210  A    between atoms: _519  and  _520
REMARK  211  A    between atoms: _519  and  _522
REMARK  212  A    between atoms: _522  and  _523
REMARK  213  A    between atoms: _523  and  _524
REMARK  214  A    between atoms: _526  and  _528
REMARK  215  A    between atoms: _528  and  _529
REMARK  216  A    between atoms: _528  and  _531
REMARK  217  A    between atoms: _531  and  _532
REMARK  218  A    between atoms: _537  and  _538
REMARK  219  A    between atoms: _540  and  _542
REMARK  220  A    between atoms: _542  and  _543
REMARK  221  A    between atoms: _542  and  _545
REMARK  222  A    between atoms: _545  and  _546
REMARK  223  A    between atoms: _549  and  _551
REMARK  224  A    between atoms: _551  and  _552
REMARK  225  A    between atoms: _551  and  _554
REMARK  226  A    between atoms: _554  and  _555
REMARK  227  A    between atoms: _560  and  _561
REMARK  228  A    between atoms: _563  and  _565
REMARK  229  A    between atoms: _565  and  _566
REMARK  230  A    between atoms: _565  and  _568
REMARK  231  A    between atoms: _568  and  _569
REMARK  232  A    between atoms: _569  and  _570
REMARK  233  A    between atoms: _570  and  _571
REMARK  234  A    between atoms: _571  and  _572
REMARK                            x       y       z     vdW  Elec       q    Type
REMARK                         _______ _______ _______ _____ _____    ______ ____
ROOT
ATOM      1  CA  ASP A   4      -2.197  -6.643  21.851  0.00  0.00    +0.160 C 
ENDROOT
BRANCH   1   2
ATOM      2  C   ASP A   4      -3.704  -6.794  22.008  0.00  0.00    +0.241 C 
ATOM      3  O   ASP A   4      -4.164  -7.610  22.790  0.00  0.00    -0.273 OA
ATOM      4  N   MET A   5      -4.458  -5.979  21.274  0.00  0.00    -0.297 N 
ATOM      5  H   MET A   5      -4.003  -5.156  20.831  0.00  0.00    +0.150 HD
BRANCH   4   6
ATOM      6  CA  MET A   5      -5.887  -6.175  21.056  0.00  0.00    +0.149 C 
BRANCH   6   7
ATOM      7  C   MET A   5      -6.070  -6.707  19.643  0.00  0.00    +0.241 C 
ATOM      8  N   TYR A   6      -6.574  -7.929  19.515  0.00  0.00    -0.297 N 
ATOM      9  H   TYR A   6      -6.809  -8.475  20.368  0.00  0.00    +0.150 HD
ATOM     10  O   MET A   5      -5.743  -6.015  18.681  0.00  0.00    -0.273 OA
BRANCH   8  11
ATOM     11  CA  TYR A   6      -6.805  -8.523  18.194  0.00  0.00    +0.153 C 
BRANCH  11  12
ATOM     12  C   TYR A   6      -8.277  -8.465  17.797  0.00  0.00    +0.241 C 
ATOM     13  N   ASP A   7      -9.152  -8.291  18.782  0.00  0.00    -0.298 N 
ATOM     14  H   ASP A   7      -8.803  -8.275  19.762  0.00  0.00    +0.150 HD
ATOM     15  O   TYR A   6      -8.608  -8.574  16.623  0.00  0.00    -0.273 OA
BRANCH  13  16
ATOM     16  CA  ASP A   7     -10.581  -8.122  18.546  0.00  0.00    +0.148 C 
BRANCH  16  17
ATOM     17  C   ASP A   7     -11.081  -6.947  19.403  0.00  0.00    +0.227 C 
ATOM     18  O   ASP A   7     -11.350  -7.125  20.598  0.00  0.00    -0.286 OA
ENDBRANCH  16  17
BRANCH  16  19
ATOM     19  CB  ASP A   7     -11.314  -9.410  18.945  0.00  0.00    +0.142 C 
BRANCH  19  20
ATOM     20  CG  ASP A   7     -12.694  -9.537  18.314  0.00  0.00    +0.367 C 
ATOM     21  OD2 ASP A   7     -13.271 -10.647  18.399  0.00  0.00    -0.246 OA
ATOM     22  OD1 ASP A   7     -13.210  -8.544  17.746  0.00  0.00    -0.246 OA
ENDBRANCH  19  20
ENDBRANCH  16  19
ENDBRANCH  13  16
ENDBRANCH  11  12
BRANCH  11  23
ATOM     23  CB  TYR A   6      -6.265  -9.967  18.133  0.00  0.00    +0.055 C 
BRANCH  23  24
ATOM     24  CG  TYR A   6      -4.767 -10.010  18.293  0.00  0.00    -0.020 A 
ATOM     25  CD2 TYR A   6      -4.190 -10.311  19.514  0.00  0.00    -0.001 A 
ATOM     26  CE2 TYR A   6      -2.804 -10.323  19.673  0.00  0.00    +0.036 A 
ATOM     27  CZ  TYR A   6      -1.992 -10.016  18.595  0.00  0.00    +0.134 A 
ATOM     28  CE1 TYR A   6      -2.541  -9.704  17.369  0.00  0.00    +0.036 A 
ATOM     29  CD1 TYR A   6      -3.925  -9.703  17.222  0.00  0.00    -0.001 A 
BRANCH  27  30
ATOM     30  OH  TYR A   6      -0.635 -10.011  18.750  0.00  0.00    -0.506 OA
ATOM     31  HH  TYR A   6      -0.385  -9.346  19.439  0.00  0.00    +0.292 HD
ENDBRANCH  27  30
ENDBRANCH  23  24
ENDBRANCH  11  23
ENDBRANCH   8  11
ENDBRANCH   6   7
BRANCH   6  32
ATOM     32  CB  MET A   5      -6.645  -4.847  21.144  0.00  0.00    +0.041 C 
BRANCH  32  33
ATOM     33  CG  MET A   5      -7.108  -4.429  22.525  0.00  0.00    +0.060 C 
BRANCH  33  34
ATOM     34  SD  MET A   5      -8.199  -2.994  22.409  0.00  0.00    -0.139 S 
ATOM     35  CE  MET A   5      -7.016  -1.698  22.031  0.00  0.00    +0.069 C 
ENDBRANCH  33  34
ENDBRANCH  32  33
ENDBRANCH   6  32
ENDBRANCH   4   6
ENDBRANCH   1   2
BRANCH   1  37
ATOM     36  C   ARG A   3      -0.150  -7.533  22.873  0.00  0.00    +0.241 C 
ATOM     37  N   ASP A   4      -1.474  -7.576  22.724  0.00  0.00    -0.297 N 
ATOM     38  H   ASP A   4      -2.014  -8.296  23.245  0.00  0.00    +0.150 HD
ATOM     39  O   ARG A   3       0.546  -6.725  22.293  0.00  0.00    -0.273 OA
BRANCH  36  40
ATOM     40  CA  ARG A   3       0.498  -8.577  23.788  0.00  0.00    +0.149 C 
BRANCH  40  42
ATOM     41  C   ALA A   2       1.331 -10.050  22.056  0.00  0.00    +0.241 C 
ATOM     42  N   ARG A   3       1.584  -9.245  23.081  0.00  0.00    -0.297 N 
ATOM     43  H   ARG A   3       2.567  -9.089  23.383  0.00  0.00    +0.150 HD
ATOM     44  O   ALA A   2       0.194 -10.275  21.668  0.00  0.00    -0.273 OA
BRANCH  41  45
ATOM     45  CA  ALA A   2       2.526 -10.706  21.371  0.00  0.00    +0.149 C 
ATOM     46  CB  ALA A   2       2.334 -12.225  21.281  0.00  0.00    +0.031 C 
BRANCH  45  48
ATOM     47  C   LEU A   1       4.588  -9.462  21.647  0.00  0.00    +0.238 C 
ATOM     48  N   ALA A   2       3.751 -10.395  22.080  0.00  0.00    -0.297 N 
ATOM     49  H   ALA A   2       3.979 -10.917  22.950  0.00  0.00    +0.150 HD
ATOM     50  O   LEU A   1       4.381  -8.811  20.631  0.00  0.00    -0.274 OA
BRANCH  47  51
ATOM     51  CA  LEU A   1       5.838  -9.216  22.499  0.00  0.00    +0.145 C 
BRANCH  51  52
ATOM     52  N   LEU A   1       5.808  -9.926  23.775  0.00  0.00    -0.238 NA
ATOM     53  H   LEU A   1       6.475 -10.710  23.923  0.00  0.00    +0.142 HD
ENDBRANCH  51  52
BRANCH  51  54
ATOM     54  CB  LEU A   1       7.092  -9.608  21.720  0.00  0.00    +0.026 C 
BRANCH  54  55
ATOM     55  CG  LEU A   1       8.424  -9.291  22.404  0.00  0.00    +0.002 C 
ATOM     56  CD2 LEU A   1       8.583  -7.805  22.530  0.00  0.00    +0.000 C 
ATOM     57  CD1 LEU A   1       9.588  -9.872  21.620  0.00  0.00    +0.000 C 
ENDBRANCH  54  55
ENDBRANCH  51  54
ENDBRANCH  47  51
ENDBRANCH  45  48
ENDBRANCH  41  45
ENDBRANCH  40  42
BRANCH  40  58
ATOM     58  CB  ARG A   3       1.012  -7.959  25.102  0.00  0.00    +0.033 C 
BRANCH  58  59
ATOM     59  CG  ARG A   3      -0.020  -7.122  25.854  0.00  0.00    +0.045 C 
BRANCH  59  60
ATOM     60  CD  ARG A   3       0.091  -7.226  27.380  0.00  0.00    +0.174 C 
BRANCH  60  61
ATOM     61  NE  ARG A   3      -1.222  -7.509  27.971  0.00  0.00    -0.265 N 
ATOM     62  CZ  ARG A   3      -1.533  -8.630  28.628  0.00  0.00    +0.342 C 
ATOM     63  NH2 ARG A   3      -2.767  -8.795  29.115  0.00  0.00    -0.292 N 
ATOM     64 HH21 ARG A   3      -3.012  -9.667  29.627  0.00  0.00    +0.255 HD
ATOM     65 HH22 ARG A   3      -3.482  -8.052  28.982  0.00  0.00    +0.255 HD
ATOM     66  NH1 ARG A   3      -0.610  -9.583  28.814  0.00  0.00    -0.292 N 
ATOM     67 HH11 ARG A   3      -0.857 -10.454  29.326  0.00  0.00    +0.255 HD
ATOM     68 HH12 ARG A   3       0.354  -9.452  28.446  0.00  0.00    +0.255 HD
ATOM     69  HE  ARG A   3      -1.963  -6.786  27.871  0.00  0.00    +0.259 HD
ENDBRANCH  60  61
ENDBRANCH  59  60
ENDBRANCH  58  59
ENDBRANCH  40  58
ENDBRANCH  36  40
ENDBRANCH   1  37
BRANCH   1  70
ATOM     70  CB  ASP A   4      -1.832  -6.879  20.375  0.00  0.00    +0.143 C 
BRANCH  70  71
ATOM     71  CG  ASP A   4      -1.842  -5.586  19.544  0.00  0.00    +0.367 C 
ATOM     72  OD2 ASP A   4      -2.542  -4.625  19.929  0.00  0.00    -0.246 OA
ATOM     73  OD1 ASP A   4      -1.156  -5.537  18.498  0.00  0.00    -0.246 OA
ENDBRANCH  70  71
ENDBRANCH   1  70
TORSDOF 30
REMARK  Name = ../refined-set-2016/4gg7/4gg7_pocket.pdb
REMARK  234 active torsions:
REMARK  status: ('A' for Active; 'I' for Inactive)
REMARK    1  A    between atoms: _1  and  _3
REMARK    2  A    between atoms: _3  and  _4
REMARK    3  A    between atoms: _3  and  _6
REMARK    4  A    between atoms: _9  and  _11
REMARK    5  A    between atoms: _11  and  _12
REMARK    6  A    between atoms: _11  and  _14
REMARK    7  A    between atoms: _14  and  _15
REMARK    8  A    between atoms: _18  and  _20
REMARK    9  A    between atoms: _20  and  _21
REMARK   10  A    between atoms: _23  and  _25
REMARK   11  A    between atoms: _25  and  _26
REMARK   12  A    between atoms: _25  and  _28
REMARK   13  A    between atoms: _28  and  _29
REMARK   14  A    between atoms: _29  and  _30
REMARK   15  A    between atoms: _30  and  _31
REMARK   16  A    between atoms: _40  and  _42
REMARK   17  A    between atoms: _42  and  _43
REMARK   18  A    between atoms: _45  and  _47
REMARK   19  A    between atoms: _47  and  _48
REMARK   20  A    between atoms: _50  and  _52
REMARK   21  A    between atoms: _52  and  _53
REMARK   22  A    between atoms: _52  and  _55
REMARK   23  A    between atoms: _57  and  _59
REMARK   24  A    between atoms: _59  and  _60
REMARK   25  A    between atoms: _59  and  _62
REMARK   26  A    between atoms: _65  and  _67
REMARK   27  A    between atoms: _67  and  _68
REMARK   28  A    between atoms: _67  and  _70
REMARK   29  A    between atoms: _70  and  _71
REMARK   30  A    between atoms: _76  and  _77
REMARK   31  A    between atoms: _79  and  _81
REMARK   32  A    between atoms: _81  and  _82
REMARK   33  A    between atoms: _81  and  _84
REMARK   34  A    between atoms: _84  and  _85
REMARK   35  A    between atoms: _90  and  _92
REMARK   36  A    between atoms: _92  and  _93
REMARK   37  A    between atoms: _92  and  _95
REMARK   38  A    between atoms: _95  and  _96
REMARK   39  A    between atoms: _101  and  _103
REMARK   40  A    between atoms: _103  and  _104
REMARK   41  A    between atoms: _103  and  _106
REMARK   42  A    between atoms: _108  and  _110
REMARK   43  A    between atoms: _110  and  _111
REMARK   44  A    between atoms: _114  and  _116
REMARK   45  A    between atoms: _116  and  _117
REMARK   46  A    between atoms: _116  and  _119
REMARK   47  A    between atoms: _122  and  _124
REMARK   48  A    between atoms: _124  and  _125
REMARK   49  A    between atoms: _124  and  _127
REMARK   50  A    between atoms: _127  and  _128
REMARK   51  A    between atoms: _128  and  _129
REMARK   52  A    between atoms: _129  and  _130
REMARK   53  A    between atoms: _130  and  _131
REMARK   54  A    between atoms: _135  and  _137
REMARK   55  A    between atoms: _137  and  _138
REMARK   56  A    between atoms: _137  and  _140
REMARK   57  A    between atoms: _140  and  _141
REMARK   58  A    between atoms: _141  and  _142
REMARK   59  A    between atoms: _144  and  _146
REMARK   60  A    between atoms: _146  and  _147
REMARK   61  A    between atoms: _146  and  _149
REMARK   62  A    between atoms: _149  and  _150
REMARK   63  A    between atoms: _153  and  _155
REMARK   64  A    between atoms: _155  and  _156
REMARK   65  A    between atoms: _155  and  _158
REMARK   66  A    between atoms: _158  and  _159
REMARK   67  A    between atoms: _161  and  _163
REMARK   68  A    between atoms: _163  and  _164
REMARK   69  A    between atoms: _163  and  _166
REMARK   70  A    between atoms: _166  and  _167
REMARK   71  A    between atoms: _170  and  _172
REMARK   72  A    between atoms: _172  and  _173
REMARK   73  A    between atoms: _172  and  _175
REMARK   74  A    between atoms: _178  and  _180
REMARK   75  A    between atoms: _180  and  _181
REMARK   76  A    between atoms: _180  and  _183
REMARK   77  A    between atoms: _186  and  _188
REMARK   78  A    between atoms: _188  and  _189
REMARK   79  A    between atoms: _188  and  _191
REMARK   80  A    between atoms: _191  and  _192
REMARK   81  A    between atoms: _196  and  _197
REMARK   82  A    between atoms: _202  and  _204
REMARK   83  A    between atoms: _204  and  _205
REMARK   84  A    between atoms: _204  and  _207
REMARK   85  A    between atoms: _207  and  _208
REMARK   86  A    between atoms: _213  and  _214
REMARK   87  A    between atoms: _216  and  _218
REMARK   88  A    between atoms: _218  and  _219
REMARK   89  A    between atoms: _218  and  _221
REMARK   90  A    between atoms: _221  and  _222
REMARK   91  A    between atoms: _222  and  _223
REMARK   92  A    between atoms: _225  and  _227
REMARK   93  A    between atoms: _227  and  _228
REMARK   94  A    between atoms: _227  and  _230
REMARK   95  A    between atoms: _230  and  _231
REMARK   96  A    between atoms: _231  and  _232
REMARK   97  A    between atoms: _232  and  _233
REMARK   98  A    between atoms: _233  and  _234
REMARK   99  A    between atoms: _238  and  _240
REMARK  100  A    between atoms: _240  and  _241
REMARK  101  A    between atoms: _240  and  _243
REMARK  102  A    between atoms: _243  and  _244
REMARK  103  A    between atoms: _249  and  _251
REMARK  104  A    between atoms: _251  and  _252
REMARK  105  A    between atoms: _254  and  _256
REMARK  106  A    between atoms: _256  and  _257
REMARK  107  A    between atoms: _256  and  _259
REMARK  108  A    between atoms: _259  and  _260
REMARK  109  A    between atoms: _263  and  _265
REMARK  110  A    between atoms: _265  and  _266
REMARK  111  A    between atoms: _265  and  _268
REMARK  112  A    between atoms: _268  and  _269
REMARK  113  A    between atoms: _272  and  _274
REMARK  114  A    between atoms: _274  and  _275
REMARK  115  A    between atoms: _274  and  _277
REMARK  116  A    between atoms: _277  and  _278
REMARK  117  A    between atoms: _278  and  _279
REMARK  118  A    between atoms: _279  and  _280
REMARK  119  A    between atoms: _289  and  _291
REMARK  120  A    between atoms: _291  and  _292
REMARK  121  A    between atoms: _291  and  _294
REMARK  122  A    between atoms: _294  and  _295
REMARK  123  A    between atoms: _300  and  _302
REMARK  124  A    between atoms: _302  and  _303
REMARK  125  A    between atoms: _302  and  _305
REMARK  126  A    between atoms: _305  and  _306
REMARK  127  A    between atoms: _312  and  _314
REMARK  128  A    between atoms: _314  and  _315
REMARK  129  A    between atoms: _314  and  _317
REMARK  130  A    between atoms: _317  and  _318
REMARK  131  A    between atoms: _323  and  _325
REMARK  132  A    between atoms: _325  and  _326
REMARK  133  A    between atoms: _325  and  _328
REMARK  134  A    between atoms: _328  and  _329
REMARK  135  A    between atoms: _334  and  _336
REMARK  136  A    between atoms: _336  and  _337
REMARK  137  A    between atoms: _336  and  _339
REMARK  138  A    between atoms: _339  and  _340
REMARK  139  A    between atoms: _345  and  _347
REMARK  140  A    between atoms: _347  and  _348
REMARK  141  A    between atoms: _347  and  _350
REMARK  142  A    between atoms: _350  and  _351
REMARK  143  A    between atoms: _354  and  _356
REMARK  144  A    between atoms: _356  and  _357
REMARK  145  A    between atoms: _360  and  _362
REMARK  146  A    between atoms: _362  and  _363
REMARK  147  A    between atoms: _366  and  _368
REMARK  148  A    between atoms: _368  and  _369
REMARK  149  A    between atoms: _368  and  _371
REMARK  150  A    between atoms: _371  and  _372
REMARK  151  A    between atoms: _372  and  _373
REMARK  152  A    between atoms: _373  and  _374
REMARK  153  A    between atoms: _383  and  _385
REMARK  154  A    between atoms: _385  and  _386
REMARK  155  A    between atoms: _385  and  _388
REMARK  156  A    between atoms: _388  and  _389
REMARK  157  A    between atoms: _394  and  _396
REMARK  158  A    between atoms: _396  and  _397
REMARK  159  A    between atoms: _396  and  _399
REMARK  160  A    between atoms: _401  and  _403
REMARK  161  A    between atoms: _403  and  _404
REMARK  162  A    between atoms: _403  and  _406
REMARK  163  A    between atoms: _406  and  _407
REMARK  164  A    between atoms: _407  and  _408
REMARK  165  A    between atoms: _410  and  _412
REMARK  166  A    between atoms: _412  and  _413
REMARK  167  A    between atoms: _412  and  _415
REMARK  168  A    between atoms: _415  and  _416
REMARK  169  A    between atoms: _419  and  _421
REMARK  170  A    between atoms: _421  and  _422
REMARK  171  A    between atoms: _421  and  _424
REMARK  172  A    between atoms: _424  and  _425
REMARK  173  A    between atoms: _428  and  _430
REMARK  174  A    between atoms: _430  and  _431
REMARK  175  A    between atoms: _430  and  _433
REMARK  176  A    between atoms: _433  and  _434
REMARK  177  A    between atoms: _434  and  _435
REMARK  178  A    between atoms: _435  and  _436
REMARK  179  A    between atoms: _436  and  _437
REMARK  180  A    between atoms: _441  and  _443
REMARK  181  A    between atoms: _443  and  _444
REMARK  182  A    between atoms: _443  and  _446
REMARK  183  A    between atoms: _449  and  _451
REMARK  184  A    between atoms: _451  and  _452
REMARK  185  A    between atoms: _455  and  _457
REMARK  186  A    between atoms: _457  and  _458
REMARK  187  A    between atoms: _457  and  _460
REMARK  188  A    between atoms: _460  and  _461
REMARK  189  A    between atoms: _464  and  _466
REMARK  190  A    between atoms: _466  and  _467
REMARK  191  A    between atoms: _466  and  _469
REMARK  192  A    between atoms: _469  and  _470
REMARK  193  A    between atoms: _476  and  _478
REMARK  194  A    between atoms: _478  and  _479
REMARK  195  A    between atoms: _478  and  _481
REMARK  196  A    between atoms: _481  and  _482
REMARK  197  A    between atoms: _485  and  _487
REMARK  198  A    between atoms: _487  and  _488
REMARK  199  A    between atoms: _491  and  _493
REMARK  200  A    between atoms: _493  and  _494
REMARK  201  A    between atoms: _493  and  _496
REMARK  202  A    between atoms: _496  and  _497
REMARK  203  A    between atoms: _497  and  _498
REMARK  204  A    between atoms: _498  and  _499
REMARK  205  A    between atoms: _508  and  _510
REMARK  206  A    between atoms: _510  and  _511
REMARK  207  A    between atoms: _510  and  _513
REMARK  208  A    between atoms: _513  and  _514
REMARK  209  A    between atoms: _517  and  _519
REMARK  210  A    between atoms: _519  and  _520
REMARK  211  A    between atoms: _519  and  _522
REMARK  212  A    between atoms: _522  and  _523
REMARK  213  A    between atoms: _523  and  _524
REMARK  214  A    between atoms: _526  and  _528
REMARK  215  A    between atoms: _528  and  _529
REMARK  216  A    between atoms: _528  and  _531
REMARK  217  A    between atoms: _531  and  _532
REMARK  218  A    between atoms: _537  and  _538
REMARK  219  A    between atoms: _540  and  _542
REMARK  220  A    between atoms: _542  and  _543
REMARK  221  A    between atoms: _542  and  _545
REMARK  222  A    between atoms: _545  and  _546
REMARK  223  A    between atoms: _549  and  _551
REMARK  224  A    between atoms: _551  and  _552
REMARK  225  A    between atoms: _551  and  _554
REMARK  226  A    between atoms: _554  and  _555
REMARK  227  A    between atoms: _560  and  _561
REMARK  228  A    between atoms: _563  and  _565
REMARK  229  A    between atoms: _565  and  _566
REMARK  230  A    between atoms: _565  and  _568
REMARK  231  A    between atoms: _568  and  _569
REMARK  232  A    between atoms: _569  and  _570
REMARK  233  A    between atoms: _570  and  _571
REMARK  234  A    between atoms: _571  and  _572
REMARK                            x       y       z     vdW  Elec       q    Type
REMARK                         _______ _______ _______ _____ _____    ______ ____
ROOT
ATOM      1  CG  TYR A   1     -10.462  -5.247  24.513  0.00  0.00    -0.020 A 
ATOM      2  CD2 TYR A   1      -9.771  -5.661  25.646  0.00  0.00    -0.001 A 
ATOM      3  CE2 TYR A   1      -9.082  -6.882  25.669  0.00  0.00    +0.036 A 
ATOM      4  CZ  TYR A   1      -9.089  -7.687  24.542  0.00  0.00    +0.134 A 
ATOM      5  CE1 TYR A   1      -9.754  -7.289  23.403  0.00  0.00    +0.036 A 
ATOM      6  CD1 TYR A   1     -10.439  -6.070  23.390  0.00  0.00    -0.001 A 
ENDROOT
BRANCH   4   7
ATOM      7  OH  TYR A   1      -8.413  -8.880  24.540  0.00  0.00    -0.506 OA
ATOM      8  HH  TYR A   1      -7.451  -8.713  24.707  0.00  0.00    +0.292 HD
ENDBRANCH   4   7
BRANCH   1   9
ATOM      9  CB  TYR A   1     -11.189  -3.926  24.484  0.00  0.00    +0.051 C 
BRANCH   9  10
ATOM     10  CA  TYR A   1     -12.619  -3.970  25.007  0.00  0.00    +0.137 C 
BRANCH  10  11
ATOM     11  N   TYR A   1     -13.463  -4.774  24.136  0.00  0.00    -0.239 NA
ATOM     12  H   TYR A   1     -13.459  -4.615  23.108  0.00  0.00    +0.142 HD
ENDBRANCH  10  11
BRANCH  10  13
ATOM     13  C   TYR A   1     -13.101  -2.537  25.222  0.00  0.00    +0.224 C 
ATOM     14  O   TYR A   1     -13.572  -1.855  24.302  0.00  0.00    -0.287 OA
ENDBRANCH  10  13
ENDBRANCH   9  10
ENDBRANCH   1   9
TORSDOF 5
REMARK  Name = ../refined-set-2016/4gg7/4gg7_pocket.pdb
REMARK  234 active torsions:
REMARK  status: ('A' for Active; 'I' for Inactive)
REMARK    1  A    between atoms: _1  and  _3
REMARK    2  A    between atoms: _3  and  _4
REMARK    3  A    between atoms: _3  and  _6
REMARK    4  A    between atoms: _9  and  _11
REMARK    5  A    between atoms: _11  and  _12
REMARK    6  A    between atoms: _11  and  _14
REMARK    7  A    between atoms: _14  and  _15
REMARK    8  A    between atoms: _18  and  _20
REMARK    9  A    between atoms: _20  and  _21
REMARK   10  A    between atoms: _23  and  _25
REMARK   11  A    between atoms: _25  and  _26
REMARK   12  A    between atoms: _25  and  _28
REMARK   13  A    between atoms: _28  and  _29
REMARK   14  A    between atoms: _29  and  _30
REMARK   15  A    between atoms: _30  and  _31
REMARK   16  A    between atoms: _40  and  _42
REMARK   17  A    between atoms: _42  and  _43
REMARK   18  A    between atoms: _45  and  _47
REMARK   19  A    between atoms: _47  and  _48
REMARK   20  A    between atoms: _50  and  _52
REMARK   21  A    between atoms: _52  and  _53
REMARK   22  A    between atoms: _52  and  _55
REMARK   23  A    between atoms: _57  and  _59
REMARK   24  A    between atoms: _59  and  _60
REMARK   25  A    between atoms: _59  and  _62
REMARK   26  A    between atoms: _65  and  _67
REMARK   27  A    between atoms: _67  and  _68
REMARK   28  A    between atoms: _67  and  _70
REMARK   29  A    between atoms: _70  and  _71
REMARK   30  A    between atoms: _76  and  _77
REMARK   31  A    between atoms: _79  and  _81
REMARK   32  A    between atoms: _81  and  _82
REMARK   33  A    between atoms: _81  and  _84
REMARK   34  A    between atoms: _84  and  _85
REMARK   35  A    between atoms: _90  and  _92
REMARK   36  A    between atoms: _92  and  _93
REMARK   37  A    between atoms: _92  and  _95
REMARK   38  A    between atoms: _95  and  _96
REMARK   39  A    between atoms: _101  and  _103
REMARK   40  A    between atoms: _103  and  _104
REMARK   41  A    between atoms: _103  and  _106
REMARK   42  A    between atoms: _108  and  _110
REMARK   43  A    between atoms: _110  and  _111
REMARK   44  A    between atoms: _114  and  _116
REMARK   45  A    between atoms: _116  and  _117
REMARK   46  A    between atoms: _116  and  _119
REMARK   47  A    between atoms: _122  and  _124
REMARK   48  A    between atoms: _124  and  _125
REMARK   49  A    between atoms: _124  and  _127
REMARK   50  A    between atoms: _127  and  _128
REMARK   51  A    between atoms: _128  and  _129
REMARK   52  A    between atoms: _129  and  _130
REMARK   53  A    between atoms: _130  and  _131
REMARK   54  A    between atoms: _135  and  _137
REMARK   55  A    between atoms: _137  and  _138
REMARK   56  A    between atoms: _137  and  _140
REMARK   57  A    between atoms: _140  and  _141
REMARK   58  A    between atoms: _141  and  _142
REMARK   59  A    between atoms: _144  and  _146
REMARK   60  A    between atoms: _146  and  _147
REMARK   61  A    between atoms: _146  and  _149
REMARK   62  A    between atoms: _149  and  _150
REMARK   63  A    between atoms: _153  and  _155
REMARK   64  A    between atoms: _155  and  _156
REMARK   65  A    between atoms: _155  and  _158
REMARK   66  A    between atoms: _158  and  _159
REMARK   67  A    between atoms: _161  and  _163
REMARK   68  A    between atoms: _163  and  _164
REMARK   69  A    between atoms: _163  and  _166
REMARK   70  A    between atoms: _166  and  _167
REMARK   71  A    between atoms: _170  and  _172
REMARK   72  A    between atoms: _172  and  _173
REMARK   73  A    between atoms: _172  and  _175
REMARK   74  A    between atoms: _178  and  _180
REMARK   75  A    between atoms: _180  and  _181
REMARK   76  A    between atoms: _180  and  _183
REMARK   77  A    between atoms: _186  and  _188
REMARK   78  A    between atoms: _188  and  _189
REMARK   79  A    between atoms: _188  and  _191
REMARK   80  A    between atoms: _191  and  _192
REMARK   81  A    between atoms: _196  and  _197
REMARK   82  A    between atoms: _202  and  _204
REMARK   83  A    between atoms: _204  and  _205
REMARK   84  A    between atoms: _204  and  _207
REMARK   85  A    between atoms: _207  and  _208
REMARK   86  A    between atoms: _213  and  _214
REMARK   87  A    between atoms: _216  and  _218
REMARK   88  A    between atoms: _218  and  _219
REMARK   89  A    between atoms: _218  and  _221
REMARK   90  A    between atoms: _221  and  _222
REMARK   91  A    between atoms: _222  and  _223
REMARK   92  A    between atoms: _225  and  _227
REMARK   93  A    between atoms: _227  and  _228
REMARK   94  A    between atoms: _227  and  _230
REMARK   95  A    between atoms: _230  and  _231
REMARK   96  A    between atoms: _231  and  _232
REMARK   97  A    between atoms: _232  and  _233
REMARK   98  A    between atoms: _233  and  _234
REMARK   99  A    between atoms: _238  and  _240
REMARK  100  A    between atoms: _240  and  _241
REMARK  101  A    between atoms: _240  and  _243
REMARK  102  A    between atoms: _243  and  _244
REMARK  103  A    between atoms: _249  and  _251
REMARK  104  A    between atoms: _251  and  _252
REMARK  105  A    between atoms: _254  and  _256
REMARK  106  A    between atoms: _256  and  _257
REMARK  107  A    between atoms: _256  and  _259
REMARK  108  A    between atoms: _259  and  _260
REMARK  109  A    between atoms: _263  and  _265
REMARK  110  A    between atoms: _265  and  _266
REMARK  111  A    between atoms: _265  and  _268
REMARK  112  A    between atoms: _268  and  _269
REMARK  113  A    between atoms: _272  and  _274
REMARK  114  A    between atoms: _274  and  _275
REMARK  115  A    between atoms: _274  and  _277
REMARK  116  A    between atoms: _277  and  _278
REMARK  117  A    between atoms: _278  and  _279
REMARK  118  A    between atoms: _279  and  _280
REMARK  119  A    between atoms: _289  and  _291
REMARK  120  A    between atoms: _291  and  _292
REMARK  121  A    between atoms: _291  and  _294
REMARK  122  A    between atoms: _294  and  _295
REMARK  123  A    between atoms: _300  and  _302
REMARK  124  A    between atoms: _302  and  _303
REMARK  125  A    between atoms: _302  and  _305
REMARK  126  A    between atoms: _305  and  _306
REMARK  127  A    between atoms: _312  and  _314
REMARK  128  A    between atoms: _314  and  _315
REMARK  129  A    between atoms: _314  and  _317
REMARK  130  A    between atoms: _317  and  _318
REMARK  131  A    between atoms: _323  and  _325
REMARK  132  A    between atoms: _325  and  _326
REMARK  133  A    between atoms: _325  and  _328
REMARK  134  A    between atoms: _328  and  _329
REMARK  135  A    between atoms: _334  and  _336
REMARK  136  A    between atoms: _336  and  _337
REMARK  137  A    between atoms: _336  and  _339
REMARK  138  A    between atoms: _339  and  _340
REMARK  139  A    between atoms: _345  and  _347
REMARK  140  A    between atoms: _347  and  _348
REMARK  141  A    between atoms: _347  and  _350
REMARK  142  A    between atoms: _350  and  _351
REMARK  143  A    between atoms: _354  and  _356
REMARK  144  A    between atoms: _356  and  _357
REMARK  145  A    between atoms: _360  and  _362
REMARK  146  A    between atoms: _362  and  _363
REMARK  147  A    between atoms: _366  and  _368
REMARK  148  A    between atoms: _368  and  _369
REMARK  149  A    between atoms: _368  and  _371
REMARK  150  A    between atoms: _371  and  _372
REMARK  151  A    between atoms: _372  and  _373
REMARK  152  A    between atoms: _373  and  _374
REMARK  153  A    between atoms: _383  and  _385
REMARK  154  A    between atoms: _385  and  _386
REMARK  155  A    between atoms: _385  and  _388
REMARK  156  A    between atoms: _388  and  _389
REMARK  157  A    between atoms: _394  and  _396
REMARK  158  A    between atoms: _396  and  _397
REMARK  159  A    between atoms: _396  and  _399
REMARK  160  A    between atoms: _401  and  _403
REMARK  161  A    between atoms: _403  and  _404
REMARK  162  A    between atoms: _403  and  _406
REMARK  163  A    between atoms: _406  and  _407
REMARK  164  A    between atoms: _407  and  _408
REMARK  165  A    between atoms: _410  and  _412
REMARK  166  A    between atoms: _412  and  _413
REMARK  167  A    between atoms: _412  and  _415
REMARK  168  A    between atoms: _415  and  _416
REMARK  169  A    between atoms: _419  and  _421
REMARK  170  A    between atoms: _421  and  _422
REMARK  171  A    between atoms: _421  and  _424
REMARK  172  A    between atoms: _424  and  _425
REMARK  173  A    between atoms: _428  and  _430
REMARK  174  A    between atoms: _430  and  _431
REMARK  175  A    between atoms: _430  and  _433
REMARK  176  A    between atoms: _433  and  _434
REMARK  177  A    between atoms: _434  and  _435
REMARK  178  A    between atoms: _435  and  _436
REMARK  179  A    between atoms: _436  and  _437
REMARK  180  A    between atoms: _441  and  _443
REMARK  181  A    between atoms: _443  and  _444
REMARK  182  A    between atoms: _443  and  _446
REMARK  183  A    between atoms: _449  and  _451
REMARK  184  A    between atoms: _451  and  _452
REMARK  185  A    between atoms: _455  and  _457
REMARK  186  A    between atoms: _457  and  _458
REMARK  187  A    between atoms: _457  and  _460
REMARK  188  A    between atoms: _460  and  _461
REMARK  189  A    between atoms: _464  and  _466
REMARK  190  A    between atoms: _466  and  _467
REMARK  191  A    between atoms: _466  and  _469
REMARK  192  A    between atoms: _469  and  _470
REMARK  193  A    between atoms: _476  and  _478
REMARK  194  A    between atoms: _478  and  _479
REMARK  195  A    between atoms: _478  and  _481
REMARK  196  A    between atoms: _481  and  _482
REMARK  197  A    between atoms: _485  and  _487
REMARK  198  A    between atoms: _487  and  _488
REMARK  199  A    between atoms: _491  and  _493
REMARK  200  A    between atoms: _493  and  _494
REMARK  201  A    between atoms: _493  and  _496
REMARK  202  A    between atoms: _496  and  _497
REMARK  203  A    between atoms: _497  and  _498
REMARK  204  A    between atoms: _498  and  _499
REMARK  205  A    between atoms: _508  and  _510
REMARK  206  A    between atoms: _510  and  _511
REMARK  207  A    between atoms: _510  and  _513
REMARK  208  A    between atoms: _513  and  _514
REMARK  209  A    between atoms: _517  and  _519
REMARK  210  A    between atoms: _519  and  _520
REMARK  211  A    between atoms: _519  and  _522
REMARK  212  A    between atoms: _522  and  _523
REMARK  213  A    between atoms: _523  and  _524
REMARK  214  A    between atoms: _526  and  _528
REMARK  215  A    between atoms: _528  and  _529
REMARK  216  A    between atoms: _528  and  _531
REMARK  217  A    between atoms: _531  and  _532
REMARK  218  A    between atoms: _537  and  _538
REMARK  219  A    between atoms: _540  and  _542
REMARK  220  A    between atoms: _542  and  _543
REMARK  221  A    between atoms: _542  and  _545
REMARK  222  A    between atoms: _545  and  _546
REMARK  223  A    between atoms: _549  and  _551
REMARK  224  A    between atoms: _551  and  _552
REMARK  225  A    between atoms: _551  and  _554
REMARK  226  A    between atoms: _554  and  _555
REMARK  227  A    between atoms: _560  and  _561
REMARK  228  A    between atoms: _563  and  _565
REMARK  229  A    between atoms: _565  and  _566
REMARK  230  A    between atoms: _565  and  _568
REMARK  231  A    between atoms: _568  and  _569
REMARK  232  A    between atoms: _569  and  _570
REMARK  233  A    between atoms: _570  and  _571
REMARK  234  A    between atoms: _571  and  _572
REMARK                            x       y       z     vdW  Elec       q    Type
REMARK                         _______ _______ _______ _____ _____    ______ ____
ROOT
ATOM      1  CG  LYS A   1      -6.039  -4.368  27.106  0.00  0.00    -0.000 C 
ENDROOT
BRANCH   1   2
ATOM      2  CB  LYS A   1      -7.000  -3.306  26.567  0.00  0.00    +0.025 C 
BRANCH   2   3
ATOM      3  CA  LYS A   1      -7.459  -2.254  27.584  0.00  0.00    +0.133 C 
BRANCH   3   4
ATOM      4  N   LYS A   1      -6.341  -1.489  28.142  0.00  0.00    -0.239 NA
ATOM      5  H   LYS A   1      -5.372  -1.859  28.066  0.00  0.00    +0.142 HD
ENDBRANCH   3   4
BRANCH   3   6
ATOM      6  C   LYS A   1      -8.221  -2.928  28.719  0.00  0.00    +0.224 C 
ATOM      7  O   LYS A   1      -7.634  -3.595  29.570  0.00  0.00    -0.287 OA
ENDBRANCH   3   6
ENDBRANCH   2   3
ENDBRANCH   1   2
BRANCH   1   8
ATOM      8  CD  LYS A   1      -5.867  -5.495  26.086  0.00  0.00    -0.024 C 
BRANCH   8   9
ATOM      9  CE  LYS A   1      -4.801  -6.497  26.500  0.00  0.00    -0.086 C 
BRANCH   9  10
ATOM     10  NZ  LYS A   1      -4.644  -7.551  25.448  0.00  0.00    +0.380 N 
ATOM     11  HZ1 LYS A   1      -3.913  -8.229  25.744  0.00  0.00    -0.089 HD
ATOM     12  HZ2 LYS A   1      -5.548  -8.049  25.320  0.00  0.00    -0.089 HD
ATOM     13  HZ3 LYS A   1      -4.363  -7.105  24.552  0.00  0.00    -0.089 HD
ENDBRANCH   9  10
ENDBRANCH   8   9
ENDBRANCH   1   8
TORSDOF 7
REMARK  Name = ../refined-set-2016/4gg7/4gg7_pocket.pdb
REMARK  234 active torsions:
REMARK  status: ('A' for Active; 'I' for Inactive)
REMARK    1  A    between atoms: _1  and  _3
REMARK    2  A    between atoms: _3  and  _4
REMARK    3  A    between atoms: _3  and  _6
REMARK    4  A    between atoms: _9  and  _11
REMARK    5  A    between atoms: _11  and  _12
REMARK    6  A    between atoms: _11  and  _14
REMARK    7  A    between atoms: _14  and  _15
REMARK    8  A    between atoms: _18  and  _20
REMARK    9  A    between atoms: _20  and  _21
REMARK   10  A    between atoms: _23  and  _25
REMARK   11  A    between atoms: _25  and  _26
REMARK   12  A    between atoms: _25  and  _28
REMARK   13  A    between atoms: _28  and  _29
REMARK   14  A    between atoms: _29  and  _30
REMARK   15  A    between atoms: _30  and  _31
REMARK   16  A    between atoms: _40  and  _42
REMARK   17  A    between atoms: _42  and  _43
REMARK   18  A    between atoms: _45  and  _47
REMARK   19  A    between atoms: _47  and  _48
REMARK   20  A    between atoms: _50  and  _52
REMARK   21  A    between atoms: _52  and  _53
REMARK   22  A    between atoms: _52  and  _55
REMARK   23  A    between atoms: _57  and  _59
REMARK   24  A    between atoms: _59  and  _60
REMARK   25  A    between atoms: _59  and  _62
REMARK   26  A    between atoms: _65  and  _67
REMARK   27  A    between atoms: _67  and  _68
REMARK   28  A    between atoms: _67  and  _70
REMARK   29  A    between atoms: _70  and  _71
REMARK   30  A    between atoms: _76  and  _77
REMARK   31  A    between atoms: _79  and  _81
REMARK   32  A    between atoms: _81  and  _82
REMARK   33  A    between atoms: _81  and  _84
REMARK   34  A    between atoms: _84  and  _85
REMARK   35  A    between atoms: _90  and  _92
REMARK   36  A    between atoms: _92  and  _93
REMARK   37  A    between atoms: _92  and  _95
REMARK   38  A    between atoms: _95  and  _96
REMARK   39  A    between atoms: _101  and  _103
REMARK   40  A    between atoms: _103  and  _104
REMARK   41  A    between atoms: _103  and  _106
REMARK   42  A    between atoms: _108  and  _110
REMARK   43  A    between atoms: _110  and  _111
REMARK   44  A    between atoms: _114  and  _116
REMARK   45  A    between atoms: _116  and  _117
REMARK   46  A    between atoms: _116  and  _119
REMARK   47  A    between atoms: _122  and  _124
REMARK   48  A    between atoms: _124  and  _125
REMARK   49  A    between atoms: _124  and  _127
REMARK   50  A    between atoms: _127  and  _128
REMARK   51  A    between atoms: _128  and  _129
REMARK   52  A    between atoms: _129  and  _130
REMARK   53  A    between atoms: _130  and  _131
REMARK   54  A    between atoms: _135  and  _137
REMARK   55  A    between atoms: _137  and  _138
REMARK   56  A    between atoms: _137  and  _140
REMARK   57  A    between atoms: _140  and  _141
REMARK   58  A    between atoms: _141  and  _142
REMARK   59  A    between atoms: _144  and  _146
REMARK   60  A    between atoms: _146  and  _147
REMARK   61  A    between atoms: _146  and  _149
REMARK   62  A    between atoms: _149  and  _150
REMARK   63  A    between atoms: _153  and  _155
REMARK   64  A    between atoms: _155  and  _156
REMARK   65  A    between atoms: _155  and  _158
REMARK   66  A    between atoms: _158  and  _159
REMARK   67  A    between atoms: _161  and  _163
REMARK   68  A    between atoms: _163  and  _164
REMARK   69  A    between atoms: _163  and  _166
REMARK   70  A    between atoms: _166  and  _167
REMARK   71  A    between atoms: _170  and  _172
REMARK   72  A    between atoms: _172  and  _173
REMARK   73  A    between atoms: _172  and  _175
REMARK   74  A    between atoms: _178  and  _180
REMARK   75  A    between atoms: _180  and  _181
REMARK   76  A    between atoms: _180  and  _183
REMARK   77  A    between atoms: _186  and  _188
REMARK   78  A    between atoms: _188  and  _189
REMARK   79  A    between atoms: _188  and  _191
REMARK   80  A    between atoms: _191  and  _192
REMARK   81  A    between atoms: _196  and  _197
REMARK   82  A    between atoms: _202  and  _204
REMARK   83  A    between atoms: _204  and  _205
REMARK   84  A    between atoms: _204  and  _207
REMARK   85  A    between atoms: _207  and  _208
REMARK   86  A    between atoms: _213  and  _214
REMARK   87  A    between atoms: _216  and  _218
REMARK   88  A    between atoms: _218  and  _219
REMARK   89  A    between atoms: _218  and  _221
REMARK   90  A    between atoms: _221  and  _222
REMARK   91  A    between atoms: _222  and  _223
REMARK   92  A    between atoms: _225  and  _227
REMARK   93  A    between atoms: _227  and  _228
REMARK   94  A    between atoms: _227  and  _230
REMARK   95  A    between atoms: _230  and  _231
REMARK   96  A    between atoms: _231  and  _232
REMARK   97  A    between atoms: _232  and  _233
REMARK   98  A    between atoms: _233  and  _234
REMARK   99  A    between atoms: _238  and  _240
REMARK  100  A    between atoms: _240  and  _241
REMARK  101  A    between atoms: _240  and  _243
REMARK  102  A    between atoms: _243  and  _244
REMARK  103  A    between atoms: _249  and  _251
REMARK  104  A    between atoms: _251  and  _252
REMARK  105  A    between atoms: _254  and  _256
REMARK  106  A    between atoms: _256  and  _257
REMARK  107  A    between atoms: _256  and  _259
REMARK  108  A    between atoms: _259  and  _260
REMARK  109  A    between atoms: _263  and  _265
REMARK  110  A    between atoms: _265  and  _266
REMARK  111  A    between atoms: _265  and  _268
REMARK  112  A    between atoms: _268  and  _269
REMARK  113  A    between atoms: _272  and  _274
REMARK  114  A    between atoms: _274  and  _275
REMARK  115  A    between atoms: _274  and  _277
REMARK  116  A    between atoms: _277  and  _278
REMARK  117  A    between atoms: _278  and  _279
REMARK  118  A    between atoms: _279  and  _280
REMARK  119  A    between atoms: _289  and  _291
REMARK  120  A    between atoms: _291  and  _292
REMARK  121  A    between atoms: _291  and  _294
REMARK  122  A    between atoms: _294  and  _295
REMARK  123  A    between atoms: _300  and  _302
REMARK  124  A    between atoms: _302  and  _303
REMARK  125  A    between atoms: _302  and  _305
REMARK  126  A    between atoms: _305  and  _306
REMARK  127  A    between atoms: _312  and  _314
REMARK  128  A    between atoms: _314  and  _315
REMARK  129  A    between atoms: _314  and  _317
REMARK  130  A    between atoms: _317  and  _318
REMARK  131  A    between atoms: _323  and  _325
REMARK  132  A    between atoms: _325  and  _326
REMARK  133  A    between atoms: _325  and  _328
REMARK  134  A    between atoms: _328  and  _329
REMARK  135  A    between atoms: _334  and  _336
REMARK  136  A    between atoms: _336  and  _337
REMARK  137  A    between atoms: _336  and  _339
REMARK  138  A    between atoms: _339  and  _340
REMARK  139  A    between atoms: _345  and  _347
REMARK  140  A    between atoms: _347  and  _348
REMARK  141  A    between atoms: _347  and  _350
REMARK  142  A    between atoms: _350  and  _351
REMARK  143  A    between atoms: _354  and  _356
REMARK  144  A    between atoms: _356  and  _357
REMARK  145  A    between atoms: _360  and  _362
REMARK  146  A    between atoms: _362  and  _363
REMARK  147  A    between atoms: _366  and  _368
REMARK  148  A    between atoms: _368  and  _369
REMARK  149  A    between atoms: _368  and  _371
REMARK  150  A    between atoms: _371  and  _372
REMARK  151  A    between atoms: _372  and  _373
REMARK  152  A    between atoms: _373  and  _374
REMARK  153  A    between atoms: _383  and  _385
REMARK  154  A    between atoms: _385  and  _386
REMARK  155  A    between atoms: _385  and  _388
REMARK  156  A    between atoms: _388  and  _389
REMARK  157  A    between atoms: _394  and  _396
REMARK  158  A    between atoms: _396  and  _397
REMARK  159  A    between atoms: _396  and  _399
REMARK  160  A    between atoms: _401  and  _403
REMARK  161  A    between atoms: _403  and  _404
REMARK  162  A    between atoms: _403  and  _406
REMARK  163  A    between atoms: _406  and  _407
REMARK  164  A    between atoms: _407  and  _408
REMARK  165  A    between atoms: _410  and  _412
REMARK  166  A    between atoms: _412  and  _413
REMARK  167  A    between atoms: _412  and  _415
REMARK  168  A    between atoms: _415  and  _416
REMARK  169  A    between atoms: _419  and  _421
REMARK  170  A    between atoms: _421  and  _422
REMARK  171  A    between atoms: _421  and  _424
REMARK  172  A    between atoms: _424  and  _425
REMARK  173  A    between atoms: _428  and  _430
REMARK  174  A    between atoms: _430  and  _431
REMARK  175  A    between atoms: _430  and  _433
REMARK  176  A    between atoms: _433  and  _434
REMARK  177  A    between atoms: _434  and  _435
REMARK  178  A    between atoms: _435  and  _436
REMARK  179  A    between atoms: _436  and  _437
REMARK  180  A    between atoms: _441  and  _443
REMARK  181  A    between atoms: _443  and  _444
REMARK  182  A    between atoms: _443  and  _446
REMARK  183  A    between atoms: _449  and  _451
REMARK  184  A    between atoms: _451  and  _452
REMARK  185  A    between atoms: _455  and  _457
REMARK  186  A    between atoms: _457  and  _458
REMARK  187  A    between atoms: _457  and  _460
REMARK  188  A    between atoms: _460  and  _461
REMARK  189  A    between atoms: _464  and  _466
REMARK  190  A    between atoms: _466  and  _467
REMARK  191  A    between atoms: _466  and  _469
REMARK  192  A    between atoms: _469  and  _470
REMARK  193  A    between atoms: _476  and  _478
REMARK  194  A    between atoms: _478  and  _479
REMARK  195  A    between atoms: _478  and  _481
REMARK  196  A    between atoms: _481  and  _482
REMARK  197  A    between atoms: _485  and  _487
REMARK  198  A    between atoms: _487  and  _488
REMARK  199  A    between atoms: _491  and  _493
REMARK  200  A    between atoms: _493  and  _494
REMARK  201  A    between atoms: _493  and  _496
REMARK  202  A    between atoms: _496  and  _497
REMARK  203  A    between atoms: _497  and  _498
REMARK  204  A    between atoms: _498  and  _499
REMARK  205  A    between atoms: _508  and  _510
REMARK  206  A    between atoms: _510  and  _511
REMARK  207  A    between atoms: _510  and  _513
REMARK  208  A    between atoms: _513  and  _514
REMARK  209  A    between atoms: _517  and  _519
REMARK  210  A    between atoms: _519  and  _520
REMARK  211  A    between atoms: _519  and  _522
REMARK  212  A    between atoms: _522  and  _523
REMARK  213  A    between atoms: _523  and  _524
REMARK  214  A    between atoms: _526  and  _528
REMARK  215  A    between atoms: _528  and  _529
REMARK  216  A    between atoms: _528  and  _531
REMARK  217  A    between atoms: _531  and  _532
REMARK  218  A    between atoms: _537  and  _538
REMARK  219  A    between atoms: _540  and  _542
REMARK  220  A    between atoms: _542  and  _543
REMARK  221  A    between atoms: _542  and  _545
REMARK  222  A    between atoms: _545  and  _546
REMARK  223  A    between atoms: _549  and  _551
REMARK  224  A    between atoms: _551  and  _552
REMARK  225  A    between atoms: _551  and  _554
REMARK  226  A    between atoms: _554  and  _555
REMARK  227  A    between atoms: _560  and  _561
REMARK  228  A    between atoms: _563  and  _565
REMARK  229  A    between atoms: _565  and  _566
REMARK  230  A    between atoms: _565  and  _568
REMARK  231  A    between atoms: _568  and  _569
REMARK  232  A    between atoms: _569  and  _570
REMARK  233  A    between atoms: _570  and  _571
REMARK  234  A    between atoms: _571  and  _572
REMARK                            x       y       z     vdW  Elec       q    Type
REMARK                         _______ _______ _______ _____ _____    ______ ____
ROOT
ATOM      1  O   HOH     1     -11.820 -15.036  18.593  0.00  0.00    +0.000 OA
ENDROOT
TORSDOF 0
REMARK  Name = ../refined-set-2016/4gg7/4gg7_pocket.pdb
REMARK  234 active torsions:
REMARK  status: ('A' for Active; 'I' for Inactive)
REMARK    1  A    between atoms: _1  and  _3
REMARK    2  A    between atoms: _3  and  _4
REMARK    3  A    between atoms: _3  and  _6
REMARK    4  A    between atoms: _9  and  _11
REMARK    5  A    between atoms: _11  and  _12
REMARK    6  A    between atoms: _11  and  _14
REMARK    7  A    between atoms: _14  and  _15
REMARK    8  A    between atoms: _18  and  _20
REMARK    9  A    between atoms: _20  and  _21
REMARK   10  A    between atoms: _23  and  _25
REMARK   11  A    between atoms: _25  and  _26
REMARK   12  A    between atoms: _25  and  _28
REMARK   13  A    between atoms: _28  and  _29
REMARK   14  A    between atoms: _29  and  _30
REMARK   15  A    between atoms: _30  and  _31
REMARK   16  A    between atoms: _40  and  _42
REMARK   17  A    between atoms: _42  and  _43
REMARK   18  A    between atoms: _45  and  _47
REMARK   19  A    between atoms: _47  and  _48
REMARK   20  A    between atoms: _50  and  _52
REMARK   21  A    between atoms: _52  and  _53
REMARK   22  A    between atoms: _52  and  _55
REMARK   23  A    between atoms: _57  and  _59
REMARK   24  A    between atoms: _59  and  _60
REMARK   25  A    between atoms: _59  and  _62
REMARK   26  A    between atoms: _65  and  _67
REMARK   27  A    between atoms: _67  and  _68
REMARK   28  A    between atoms: _67  and  _70
REMARK   29  A    between atoms: _70  and  _71
REMARK   30  A    between atoms: _76  and  _77
REMARK   31  A    between atoms: _79  and  _81
REMARK   32  A    between atoms: _81  and  _82
REMARK   33  A    between atoms: _81  and  _84
REMARK   34  A    between atoms: _84  and  _85
REMARK   35  A    between atoms: _90  and  _92
REMARK   36  A    between atoms: _92  and  _93
REMARK   37  A    between atoms: _92  and  _95
REMARK   38  A    between atoms: _95  and  _96
REMARK   39  A    between atoms: _101  and  _103
REMARK   40  A    between atoms: _103  and  _104
REMARK   41  A    between atoms: _103  and  _106
REMARK   42  A    between atoms: _108  and  _110
REMARK   43  A    between atoms: _110  and  _111
REMARK   44  A    between atoms: _114  and  _116
REMARK   45  A    between atoms: _116  and  _117
REMARK   46  A    between atoms: _116  and  _119
REMARK   47  A    between atoms: _122  and  _124
REMARK   48  A    between atoms: _124  and  _125
REMARK   49  A    between atoms: _124  and  _127
REMARK   50  A    between atoms: _127  and  _128
REMARK   51  A    between atoms: _128  and  _129
REMARK   52  A    between atoms: _129  and  _130
REMARK   53  A    between atoms: _130  and  _131
REMARK   54  A    between atoms: _135  and  _137
REMARK   55  A    between atoms: _137  and  _138
REMARK   56  A    between atoms: _137  and  _140
REMARK   57  A    between atoms: _140  and  _141
REMARK   58  A    between atoms: _141  and  _142
REMARK   59  A    between atoms: _144  and  _146
REMARK   60  A    between atoms: _146  and  _147
REMARK   61  A    between atoms: _146  and  _149
REMARK   62  A    between atoms: _149  and  _150
REMARK   63  A    between atoms: _153  and  _155
REMARK   64  A    between atoms: _155  and  _156
REMARK   65  A    between atoms: _155  and  _158
REMARK   66  A    between atoms: _158  and  _159
REMARK   67  A    between atoms: _161  and  _163
REMARK   68  A    between atoms: _163  and  _164
REMARK   69  A    between atoms: _163  and  _166
REMARK   70  A    between atoms: _166  and  _167
REMARK   71  A    between atoms: _170  and  _172
REMARK   72  A    between atoms: _172  and  _173
REMARK   73  A    between atoms: _172  and  _175
REMARK   74  A    between atoms: _178  and  _180
REMARK   75  A    between atoms: _180  and  _181
REMARK   76  A    between atoms: _180  and  _183
REMARK   77  A    between atoms: _186  and  _188
REMARK   78  A    between atoms: _188  and  _189
REMARK   79  A    between atoms: _188  and  _191
REMARK   80  A    between atoms: _191  and  _192
REMARK   81  A    between atoms: _196  and  _197
REMARK   82  A    between atoms: _202  and  _204
REMARK   83  A    between atoms: _204  and  _205
REMARK   84  A    between atoms: _204  and  _207
REMARK   85  A    between atoms: _207  and  _208
REMARK   86  A    between atoms: _213  and  _214
REMARK   87  A    between atoms: _216  and  _218
REMARK   88  A    between atoms: _218  and  _219
REMARK   89  A    between atoms: _218  and  _221
REMARK   90  A    between atoms: _221  and  _222
REMARK   91  A    between atoms: _222  and  _223
REMARK   92  A    between atoms: _225  and  _227
REMARK   93  A    between atoms: _227  and  _228
REMARK   94  A    between atoms: _227  and  _230
REMARK   95  A    between atoms: _230  and  _231
REMARK   96  A    between atoms: _231  and  _232
REMARK   97  A    between atoms: _232  and  _233
REMARK   98  A    between atoms: _233  and  _234
REMARK   99  A    between atoms: _238  and  _240
REMARK  100  A    between atoms: _240  and  _241
REMARK  101  A    between atoms: _240  and  _243
REMARK  102  A    between atoms: _243  and  _244
REMARK  103  A    between atoms: _249  and  _251
REMARK  104  A    between atoms: _251  and  _252
REMARK  105  A    between atoms: _254  and  _256
REMARK  106  A    between atoms: _256  and  _257
REMARK  107  A    between atoms: _256  and  _259
REMARK  108  A    between atoms: _259  and  _260
REMARK  109  A    between atoms: _263  and  _265
REMARK  110  A    between atoms: _265  and  _266
REMARK  111  A    between atoms: _265  and  _268
REMARK  112  A    between atoms: _268  and  _269
REMARK  113  A    between atoms: _272  and  _274
REMARK  114  A    between atoms: _274  and  _275
REMARK  115  A    between atoms: _274  and  _277
REMARK  116  A    between atoms: _277  and  _278
REMARK  117  A    between atoms: _278  and  _279
REMARK  118  A    between atoms: _279  and  _280
REMARK  119  A    between atoms: _289  and  _291
REMARK  120  A    between atoms: _291  and  _292
REMARK  121  A    between atoms: _291  and  _294
REMARK  122  A    between atoms: _294  and  _295
REMARK  123  A    between atoms: _300  and  _302
REMARK  124  A    between atoms: _302  and  _303
REMARK  125  A    between atoms: _302  and  _305
REMARK  126  A    between atoms: _305  and  _306
REMARK  127  A    between atoms: _312  and  _314
REMARK  128  A    between atoms: _314  and  _315
REMARK  129  A    between atoms: _314  and  _317
REMARK  130  A    between atoms: _317  and  _318
REMARK  131  A    between atoms: _323  and  _325
REMARK  132  A    between atoms: _325  and  _326
REMARK  133  A    between atoms: _325  and  _328
REMARK  134  A    between atoms: _328  and  _329
REMARK  135  A    between atoms: _334  and  _336
REMARK  136  A    between atoms: _336  and  _337
REMARK  137  A    between atoms: _336  and  _339
REMARK  138  A    between atoms: _339  and  _340
REMARK  139  A    between atoms: _345  and  _347
REMARK  140  A    between atoms: _347  and  _348
REMARK  141  A    between atoms: _347  and  _350
REMARK  142  A    between atoms: _350  and  _351
REMARK  143  A    between atoms: _354  and  _356
REMARK  144  A    between atoms: _356  and  _357
REMARK  145  A    between atoms: _360  and  _362
REMARK  146  A    between atoms: _362  and  _363
REMARK  147  A    between atoms: _366  and  _368
REMARK  148  A    between atoms: _368  and  _369
REMARK  149  A    between atoms: _368  and  _371
REMARK  150  A    between atoms: _371  and  _372
REMARK  151  A    between atoms: _372  and  _373
REMARK  152  A    between atoms: _373  and  _374
REMARK  153  A    between atoms: _383  and  _385
REMARK  154  A    between atoms: _385  and  _386
REMARK  155  A    between atoms: _385  and  _388
REMARK  156  A    between atoms: _388  and  _389
REMARK  157  A    between atoms: _394  and  _396
REMARK  158  A    between atoms: _396  and  _397
REMARK  159  A    between atoms: _396  and  _399
REMARK  160  A    between atoms: _401  and  _403
REMARK  161  A    between atoms: _403  and  _404
REMARK  162  A    between atoms: _403  and  _406
REMARK  163  A    between atoms: _406  and  _407
REMARK  164  A    between atoms: _407  and  _408
REMARK  165  A    between atoms: _410  and  _412
REMARK  166  A    between atoms: _412  and  _413
REMARK  167  A    between atoms: _412  and  _415
REMARK  168  A    between atoms: _415  and  _416
REMARK  169  A    between atoms: _419  and  _421
REMARK  170  A    between atoms: _421  and  _422
REMARK  171  A    between atoms: _421  and  _424
REMARK  172  A    between atoms: _424  and  _425
REMARK  173  A    between atoms: _428  and  _430
REMARK  174  A    between atoms: _430  and  _431
REMARK  175  A    between atoms: _430  and  _433
REMARK  176  A    between atoms: _433  and  _434
REMARK  177  A    between atoms: _434  and  _435
REMARK  178  A    between atoms: _435  and  _436
REMARK  179  A    between atoms: _436  and  _437
REMARK  180  A    between atoms: _441  and  _443
REMARK  181  A    between atoms: _443  and  _444
REMARK  182  A    between atoms: _443  and  _446
REMARK  183  A    between atoms: _449  and  _451
REMARK  184  A    between atoms: _451  and  _452
REMARK  185  A    between atoms: _455  and  _457
REMARK  186  A    between atoms: _457  and  _458
REMARK  187  A    between atoms: _457  and  _460
REMARK  188  A    between atoms: _460  and  _461
REMARK  189  A    between atoms: _464  and  _466
REMARK  190  A    between atoms: _466  and  _467
REMARK  191  A    between atoms: _466  and  _469
REMARK  192  A    between atoms: _469  and  _470
REMARK  193  A    between atoms: _476  and  _478
REMARK  194  A    between atoms: _478  and  _479
REMARK  195  A    between atoms: _478  and  _481
REMARK  196  A    between atoms: _481  and  _482
REMARK  197  A    between atoms: _485  and  _487
REMARK  198  A    between atoms: _487  and  _488
REMARK  199  A    between atoms: _491  and  _493
REMARK  200  A    between atoms: _493  and  _494
REMARK  201  A    between atoms: _493  and  _496
REMARK  202  A    between atoms: _496  and  _497
REMARK  203  A    between atoms: _497  and  _498
REMARK  204  A    between atoms: _498  and  _499
REMARK  205  A    between atoms: _508  and  _510
REMARK  206  A    between atoms: _510  and  _511
REMARK  207  A    between atoms: _510  and  _513
REMARK  208  A    between atoms: _513  and  _514
REMARK  209  A    between atoms: _517  and  _519
REMARK  210  A    between atoms: _519  and  _520
REMARK  211  A    between atoms: _519  and  _522
REMARK  212  A    between atoms: _522  and  _523
REMARK  213  A    between atoms: _523  and  _524
REMARK  214  A    between atoms: _526  and  _528
REMARK  215  A    between atoms: _528  and  _529
REMARK  216  A    between atoms: _528  and  _531
REMARK  217  A    between atoms: _531  and  _532
REMARK  218  A    between atoms: _537  and  _538
REMARK  219  A    between atoms: _540  and  _542
REMARK  220  A    between atoms: _542  and  _543
REMARK  221  A    between atoms: _542  and  _545
REMARK  222  A    between atoms: _545  and  _546
REMARK  223  A    between atoms: _549  and  _551
REMARK  224  A    between atoms: _551  and  _552
REMARK  225  A    between atoms: _551  and  _554
REMARK  226  A    between atoms: _554  and  _555
REMARK  227  A    between atoms: _560  and  _561
REMARK  228  A    between atoms: _563  and  _565
REMARK  229  A    between atoms: _565  and  _566
REMARK  230  A    between atoms: _565  and  _568
REMARK  231  A    between atoms: _568  and  _569
REMARK  232  A    between atoms: _569  and  _570
REMARK  233  A    between atoms: _570  and  _571
REMARK  234  A    between atoms: _571  and  _572
REMARK                            x       y       z     vdW  Elec       q    Type
REMARK                         _______ _______ _______ _____ _____    ______ ____
ROOT
ATOM      1  O   HOH     1      -5.707 -14.487  13.888  0.00  0.00    +0.000 OA
ENDROOT
TORSDOF 0
REMARK  Name = ../refined-set-2016/4gg7/4gg7_pocket.pdb
REMARK  234 active torsions:
REMARK  status: ('A' for Active; 'I' for Inactive)
REMARK    1  A    between atoms: _1  and  _3
REMARK    2  A    between atoms: _3  and  _4
REMARK    3  A    between atoms: _3  and  _6
REMARK    4  A    between atoms: _9  and  _11
REMARK    5  A    between atoms: _11  and  _12
REMARK    6  A    between atoms: _11  and  _14
REMARK    7  A    between atoms: _14  and  _15
REMARK    8  A    between atoms: _18  and  _20
REMARK    9  A    between atoms: _20  and  _21
REMARK   10  A    between atoms: _23  and  _25
REMARK   11  A    between atoms: _25  and  _26
REMARK   12  A    between atoms: _25  and  _28
REMARK   13  A    between atoms: _28  and  _29
REMARK   14  A    between atoms: _29  and  _30
REMARK   15  A    between atoms: _30  and  _31
REMARK   16  A    between atoms: _40  and  _42
REMARK   17  A    between atoms: _42  and  _43
REMARK   18  A    between atoms: _45  and  _47
REMARK   19  A    between atoms: _47  and  _48
REMARK   20  A    between atoms: _50  and  _52
REMARK   21  A    between atoms: _52  and  _53
REMARK   22  A    between atoms: _52  and  _55
REMARK   23  A    between atoms: _57  and  _59
REMARK   24  A    between atoms: _59  and  _60
REMARK   25  A    between atoms: _59  and  _62
REMARK   26  A    between atoms: _65  and  _67
REMARK   27  A    between atoms: _67  and  _68
REMARK   28  A    between atoms: _67  and  _70
REMARK   29  A    between atoms: _70  and  _71
REMARK   30  A    between atoms: _76  and  _77
REMARK   31  A    between atoms: _79  and  _81
REMARK   32  A    between atoms: _81  and  _82
REMARK   33  A    between atoms: _81  and  _84
REMARK   34  A    between atoms: _84  and  _85
REMARK   35  A    between atoms: _90  and  _92
REMARK   36  A    between atoms: _92  and  _93
REMARK   37  A    between atoms: _92  and  _95
REMARK   38  A    between atoms: _95  and  _96
REMARK   39  A    between atoms: _101  and  _103
REMARK   40  A    between atoms: _103  and  _104
REMARK   41  A    between atoms: _103  and  _106
REMARK   42  A    between atoms: _108  and  _110
REMARK   43  A    between atoms: _110  and  _111
REMARK   44  A    between atoms: _114  and  _116
REMARK   45  A    between atoms: _116  and  _117
REMARK   46  A    between atoms: _116  and  _119
REMARK   47  A    between atoms: _122  and  _124
REMARK   48  A    between atoms: _124  and  _125
REMARK   49  A    between atoms: _124  and  _127
REMARK   50  A    between atoms: _127  and  _128
REMARK   51  A    between atoms: _128  and  _129
REMARK   52  A    between atoms: _129  and  _130
REMARK   53  A    between atoms: _130  and  _131
REMARK   54  A    between atoms: _135  and  _137
REMARK   55  A    between atoms: _137  and  _138
REMARK   56  A    between atoms: _137  and  _140
REMARK   57  A    between atoms: _140  and  _141
REMARK   58  A    between atoms: _141  and  _142
REMARK   59  A    between atoms: _144  and  _146
REMARK   60  A    between atoms: _146  and  _147
REMARK   61  A    between atoms: _146  and  _149
REMARK   62  A    between atoms: _149  and  _150
REMARK   63  A    between atoms: _153  and  _155
REMARK   64  A    between atoms: _155  and  _156
REMARK   65  A    between atoms: _155  and  _158
REMARK   66  A    between atoms: _158  and  _159
REMARK   67  A    between atoms: _161  and  _163
REMARK   68  A    between atoms: _163  and  _164
REMARK   69  A    between atoms: _163  and  _166
REMARK   70  A    between atoms: _166  and  _167
REMARK   71  A    between atoms: _170  and  _172
REMARK   72  A    between atoms: _172  and  _173
REMARK   73  A    between atoms: _172  and  _175
REMARK   74  A    between atoms: _178  and  _180
REMARK   75  A    between atoms: _180  and  _181
REMARK   76  A    between atoms: _180  and  _183
REMARK   77  A    between atoms: _186  and  _188
REMARK   78  A    between atoms: _188  and  _189
REMARK   79  A    between atoms: _188  and  _191
REMARK   80  A    between atoms: _191  and  _192
REMARK   81  A    between atoms: _196  and  _197
REMARK   82  A    between atoms: _202  and  _204
REMARK   83  A    between atoms: _204  and  _205
REMARK   84  A    between atoms: _204  and  _207
REMARK   85  A    between atoms: _207  and  _208
REMARK   86  A    between atoms: _213  and  _214
REMARK   87  A    between atoms: _216  and  _218
REMARK   88  A    between atoms: _218  and  _219
REMARK   89  A    between atoms: _218  and  _221
REMARK   90  A    between atoms: _221  and  _222
REMARK   91  A    between atoms: _222  and  _223
REMARK   92  A    between atoms: _225  and  _227
REMARK   93  A    between atoms: _227  and  _228
REMARK   94  A    between atoms: _227  and  _230
REMARK   95  A    between atoms: _230  and  _231
REMARK   96  A    between atoms: _231  and  _232
REMARK   97  A    between atoms: _232  and  _233
REMARK   98  A    between atoms: _233  and  _234
REMARK   99  A    between atoms: _238  and  _240
REMARK  100  A    between atoms: _240  and  _241
REMARK  101  A    between atoms: _240  and  _243
REMARK  102  A    between atoms: _243  and  _244
REMARK  103  A    between atoms: _249  and  _251
REMARK  104  A    between atoms: _251  and  _252
REMARK  105  A    between atoms: _254  and  _256
REMARK  106  A    between atoms: _256  and  _257
REMARK  107  A    between atoms: _256  and  _259
REMARK  108  A    between atoms: _259  and  _260
REMARK  109  A    between atoms: _263  and  _265
REMARK  110  A    between atoms: _265  and  _266
REMARK  111  A    between atoms: _265  and  _268
REMARK  112  A    between atoms: _268  and  _269
REMARK  113  A    between atoms: _272  and  _274
REMARK  114  A    between atoms: _274  and  _275
REMARK  115  A    between atoms: _274  and  _277
REMARK  116  A    between atoms: _277  and  _278
REMARK  117  A    between atoms: _278  and  _279
REMARK  118  A    between atoms: _279  and  _280
REMARK  119  A    between atoms: _289  and  _291
REMARK  120  A    between atoms: _291  and  _292
REMARK  121  A    between atoms: _291  and  _294
REMARK  122  A    between atoms: _294  and  _295
REMARK  123  A    between atoms: _300  and  _302
REMARK  124  A    between atoms: _302  and  _303
REMARK  125  A    between atoms: _302  and  _305
REMARK  126  A    between atoms: _305  and  _306
REMARK  127  A    between atoms: _312  and  _314
REMARK  128  A    between atoms: _314  and  _315
REMARK  129  A    between atoms: _314  and  _317
REMARK  130  A    between atoms: _317  and  _318
REMARK  131  A    between atoms: _323  and  _325
REMARK  132  A    between atoms: _325  and  _326
REMARK  133  A    between atoms: _325  and  _328
REMARK  134  A    between atoms: _328  and  _329
REMARK  135  A    between atoms: _334  and  _336
REMARK  136  A    between atoms: _336  and  _337
REMARK  137  A    between atoms: _336  and  _339
REMARK  138  A    between atoms: _339  and  _340
REMARK  139  A    between atoms: _345  and  _347
REMARK  140  A    between atoms: _347  and  _348
REMARK  141  A    between atoms: _347  and  _350
REMARK  142  A    between atoms: _350  and  _351
REMARK  143  A    between atoms: _354  and  _356
REMARK  144  A    between atoms: _356  and  _357
REMARK  145  A    between atoms: _360  and  _362
REMARK  146  A    between atoms: _362  and  _363
REMARK  147  A    between atoms: _366  and  _368
REMARK  148  A    between atoms: _368  and  _369
REMARK  149  A    between atoms: _368  and  _371
REMARK  150  A    between atoms: _371  and  _372
REMARK  151  A    between atoms: _372  and  _373
REMARK  152  A    between atoms: _373  and  _374
REMARK  153  A    between atoms: _383  and  _385
REMARK  154  A    between atoms: _385  and  _386
REMARK  155  A    between atoms: _385  and  _388
REMARK  156  A    between atoms: _388  and  _389
REMARK  157  A    between atoms: _394  and  _396
REMARK  158  A    between atoms: _396  and  _397
REMARK  159  A    between atoms: _396  and  _399
REMARK  160  A    between atoms: _401  and  _403
REMARK  161  A    between atoms: _403  and  _404
REMARK  162  A    between atoms: _403  and  _406
REMARK  163  A    between atoms: _406  and  _407
REMARK  164  A    between atoms: _407  and  _408
REMARK  165  A    between atoms: _410  and  _412
REMARK  166  A    between atoms: _412  and  _413
REMARK  167  A    between atoms: _412  and  _415
REMARK  168  A    between atoms: _415  and  _416
REMARK  169  A    between atoms: _419  and  _421
REMARK  170  A    between atoms: _421  and  _422
REMARK  171  A    between atoms: _421  and  _424
REMARK  172  A    between atoms: _424  and  _425
REMARK  173  A    between atoms: _428  and  _430
REMARK  174  A    between atoms: _430  and  _431
REMARK  175  A    between atoms: _430  and  _433
REMARK  176  A    between atoms: _433  and  _434
REMARK  177  A    between atoms: _434  and  _435
REMARK  178  A    between atoms: _435  and  _436
REMARK  179  A    between atoms: _436  and  _437
REMARK  180  A    between atoms: _441  and  _443
REMARK  181  A    between atoms: _443  and  _444
REMARK  182  A    between atoms: _443  and  _446
REMARK  183  A    between atoms: _449  and  _451
REMARK  184  A    between atoms: _451  and  _452
REMARK  185  A    between atoms: _455  and  _457
REMARK  186  A    between atoms: _457  and  _458
REMARK  187  A    between atoms: _457  and  _460
REMARK  188  A    between atoms: _460  and  _461
REMARK  189  A    between atoms: _464  and  _466
REMARK  190  A    between atoms: _466  and  _467
REMARK  191  A    between atoms: _466  and  _469
REMARK  192  A    between atoms: _469  and  _470
REMARK  193  A    between atoms: _476  and  _478
REMARK  194  A    between atoms: _478  and  _479
REMARK  195  A    between atoms: _478  and  _481
REMARK  196  A    between atoms: _481  and  _482
REMARK  197  A    between atoms: _485  and  _487
REMARK  198  A    between atoms: _487  and  _488
REMARK  199  A    between atoms: _491  and  _493
REMARK  200  A    between atoms: _493  and  _494
REMARK  201  A    between atoms: _493  and  _496
REMARK  202  A    between atoms: _496  and  _497
REMARK  203  A    between atoms: _497  and  _498
REMARK  204  A    between atoms: _498  and  _499
REMARK  205  A    between atoms: _508  and  _510
REMARK  206  A    between atoms: _510  and  _511
REMARK  207  A    between atoms: _510  and  _513
REMARK  208  A    between atoms: _513  and  _514
REMARK  209  A    between atoms: _517  and  _519
REMARK  210  A    between atoms: _519  and  _520
REMARK  211  A    between atoms: _519  and  _522
REMARK  212  A    between atoms: _522  and  _523
REMARK  213  A    between atoms: _523  and  _524
REMARK  214  A    between atoms: _526  and  _528
REMARK  215  A    between atoms: _528  and  _529
REMARK  216  A    between atoms: _528  and  _531
REMARK  217  A    between atoms: _531  and  _532
REMARK  218  A    between atoms: _537  and  _538
REMARK  219  A    between atoms: _540  and  _542
REMARK  220  A    between atoms: _542  and  _543
REMARK  221  A    between atoms: _542  and  _545
REMARK  222  A    between atoms: _545  and  _546
REMARK  223  A    between atoms: _549  and  _551
REMARK  224  A    between atoms: _551  and  _552
REMARK  225  A    between atoms: _551  and  _554
REMARK  226  A    between atoms: _554  and  _555
REMARK  227  A    between atoms: _560  and  _561
REMARK  228  A    between atoms: _563  and  _565
REMARK  229  A    between atoms: _565  and  _566
REMARK  230  A    between atoms: _565  and  _568
REMARK  231  A    between atoms: _568  and  _569
REMARK  232  A    between atoms: _569  and  _570
REMARK  233  A    between atoms: _570  and  _571
REMARK  234  A    between atoms: _571  and  _572
REMARK                            x       y       z     vdW  Elec       q    Type
REMARK                         _______ _______ _______ _____ _____    ______ ____
ROOT
ATOM      1  O   HOH     1      -9.439 -20.410  14.833  0.00  0.00    +0.000 OA
ENDROOT
TORSDOF 0
REMARK  Name = ../refined-set-2016/4gg7/4gg7_pocket.pdb
REMARK  234 active torsions:
REMARK  status: ('A' for Active; 'I' for Inactive)
REMARK    1  A    between atoms: _1  and  _3
REMARK    2  A    between atoms: _3  and  _4
REMARK    3  A    between atoms: _3  and  _6
REMARK    4  A    between atoms: _9  and  _11
REMARK    5  A    between atoms: _11  and  _12
REMARK    6  A    between atoms: _11  and  _14
REMARK    7  A    between atoms: _14  and  _15
REMARK    8  A    between atoms: _18  and  _20
REMARK    9  A    between atoms: _20  and  _21
REMARK   10  A    between atoms: _23  and  _25
REMARK   11  A    between atoms: _25  and  _26
REMARK   12  A    between atoms: _25  and  _28
REMARK   13  A    between atoms: _28  and  _29
REMARK   14  A    between atoms: _29  and  _30
REMARK   15  A    between atoms: _30  and  _31
REMARK   16  A    between atoms: _40  and  _42
REMARK   17  A    between atoms: _42  and  _43
REMARK   18  A    between atoms: _45  and  _47
REMARK   19  A    between atoms: _47  and  _48
REMARK   20  A    between atoms: _50  and  _52
REMARK   21  A    between atoms: _52  and  _53
REMARK   22  A    between atoms: _52  and  _55
REMARK   23  A    between atoms: _57  and  _59
REMARK   24  A    between atoms: _59  and  _60
REMARK   25  A    between atoms: _59  and  _62
REMARK   26  A    between atoms: _65  and  _67
REMARK   27  A    between atoms: _67  and  _68
REMARK   28  A    between atoms: _67  and  _70
REMARK   29  A    between atoms: _70  and  _71
REMARK   30  A    between atoms: _76  and  _77
REMARK   31  A    between atoms: _79  and  _81
REMARK   32  A    between atoms: _81  and  _82
REMARK   33  A    between atoms: _81  and  _84
REMARK   34  A    between atoms: _84  and  _85
REMARK   35  A    between atoms: _90  and  _92
REMARK   36  A    between atoms: _92  and  _93
REMARK   37  A    between atoms: _92  and  _95
REMARK   38  A    between atoms: _95  and  _96
REMARK   39  A    between atoms: _101  and  _103
REMARK   40  A    between atoms: _103  and  _104
REMARK   41  A    between atoms: _103  and  _106
REMARK   42  A    between atoms: _108  and  _110
REMARK   43  A    between atoms: _110  and  _111
REMARK   44  A    between atoms: _114  and  _116
REMARK   45  A    between atoms: _116  and  _117
REMARK   46  A    between atoms: _116  and  _119
REMARK   47  A    between atoms: _122  and  _124
REMARK   48  A    between atoms: _124  and  _125
REMARK   49  A    between atoms: _124  and  _127
REMARK   50  A    between atoms: _127  and  _128
REMARK   51  A    between atoms: _128  and  _129
REMARK   52  A    between atoms: _129  and  _130
REMARK   53  A    between atoms: _130  and  _131
REMARK   54  A    between atoms: _135  and  _137
REMARK   55  A    between atoms: _137  and  _138
REMARK   56  A    between atoms: _137  and  _140
REMARK   57  A    between atoms: _140  and  _141
REMARK   58  A    between atoms: _141  and  _142
REMARK   59  A    between atoms: _144  and  _146
REMARK   60  A    between atoms: _146  and  _147
REMARK   61  A    between atoms: _146  and  _149
REMARK   62  A    between atoms: _149  and  _150
REMARK   63  A    between atoms: _153  and  _155
REMARK   64  A    between atoms: _155  and  _156
REMARK   65  A    between atoms: _155  and  _158
REMARK   66  A    between atoms: _158  and  _159
REMARK   67  A    between atoms: _161  and  _163
REMARK   68  A    between atoms: _163  and  _164
REMARK   69  A    between atoms: _163  and  _166
REMARK   70  A    between atoms: _166  and  _167
REMARK   71  A    between atoms: _170  and  _172
REMARK   72  A    between atoms: _172  and  _173
REMARK   73  A    between atoms: _172  and  _175
REMARK   74  A    between atoms: _178  and  _180
REMARK   75  A    between atoms: _180  and  _181
REMARK   76  A    between atoms: _180  and  _183
REMARK   77  A    between atoms: _186  and  _188
REMARK   78  A    between atoms: _188  and  _189
REMARK   79  A    between atoms: _188  and  _191
REMARK   80  A    between atoms: _191  and  _192
REMARK   81  A    between atoms: _196  and  _197
REMARK   82  A    between atoms: _202  and  _204
REMARK   83  A    between atoms: _204  and  _205
REMARK   84  A    between atoms: _204  and  _207
REMARK   85  A    between atoms: _207  and  _208
REMARK   86  A    between atoms: _213  and  _214
REMARK   87  A    between atoms: _216  and  _218
REMARK   88  A    between atoms: _218  and  _219
REMARK   89  A    between atoms: _218  and  _221
REMARK   90  A    between atoms: _221  and  _222
REMARK   91  A    between atoms: _222  and  _223
REMARK   92  A    between atoms: _225  and  _227
REMARK   93  A    between atoms: _227  and  _228
REMARK   94  A    between atoms: _227  and  _230
REMARK   95  A    between atoms: _230  and  _231
REMARK   96  A    between atoms: _231  and  _232
REMARK   97  A    between atoms: _232  and  _233
REMARK   98  A    between atoms: _233  and  _234
REMARK   99  A    between atoms: _238  and  _240
REMARK  100  A    between atoms: _240  and  _241
REMARK  101  A    between atoms: _240  and  _243
REMARK  102  A    between atoms: _243  and  _244
REMARK  103  A    between atoms: _249  and  _251
REMARK  104  A    between atoms: _251  and  _252
REMARK  105  A    between atoms: _254  and  _256
REMARK  106  A    between atoms: _256  and  _257
REMARK  107  A    between atoms: _256  and  _259
REMARK  108  A    between atoms: _259  and  _260
REMARK  109  A    between atoms: _263  and  _265
REMARK  110  A    between atoms: _265  and  _266
REMARK  111  A    between atoms: _265  and  _268
REMARK  112  A    between atoms: _268  and  _269
REMARK  113  A    between atoms: _272  and  _274
REMARK  114  A    between atoms: _274  and  _275
REMARK  115  A    between atoms: _274  and  _277
REMARK  116  A    between atoms: _277  and  _278
REMARK  117  A    between atoms: _278  and  _279
REMARK  118  A    between atoms: _279  and  _280
REMARK  119  A    between atoms: _289  and  _291
REMARK  120  A    between atoms: _291  and  _292
REMARK  121  A    between atoms: _291  and  _294
REMARK  122  A    between atoms: _294  and  _295
REMARK  123  A    between atoms: _300  and  _302
REMARK  124  A    between atoms: _302  and  _303
REMARK  125  A    between atoms: _302  and  _305
REMARK  126  A    between atoms: _305  and  _306
REMARK  127  A    between atoms: _312  and  _314
REMARK  128  A    between atoms: _314  and  _315
REMARK  129  A    between atoms: _314  and  _317
REMARK  130  A    between atoms: _317  and  _318
REMARK  131  A    between atoms: _323  and  _325
REMARK  132  A    between atoms: _325  and  _326
REMARK  133  A    between atoms: _325  and  _328
REMARK  134  A    between atoms: _328  and  _329
REMARK  135  A    between atoms: _334  and  _336
REMARK  136  A    between atoms: _336  and  _337
REMARK  137  A    between atoms: _336  and  _339
REMARK  138  A    between atoms: _339  and  _340
REMARK  139  A    between atoms: _345  and  _347
REMARK  140  A    between atoms: _347  and  _348
REMARK  141  A    between atoms: _347  and  _350
REMARK  142  A    between atoms: _350  and  _351
REMARK  143  A    between atoms: _354  and  _356
REMARK  144  A    between atoms: _356  and  _357
REMARK  145  A    between atoms: _360  and  _362
REMARK  146  A    between atoms: _362  and  _363
REMARK  147  A    between atoms: _366  and  _368
REMARK  148  A    between atoms: _368  and  _369
REMARK  149  A    between atoms: _368  and  _371
REMARK  150  A    between atoms: _371  and  _372
REMARK  151  A    between atoms: _372  and  _373
REMARK  152  A    between atoms: _373  and  _374
REMARK  153  A    between atoms: _383  and  _385
REMARK  154  A    between atoms: _385  and  _386
REMARK  155  A    between atoms: _385  and  _388
REMARK  156  A    between atoms: _388  and  _389
REMARK  157  A    between atoms: _394  and  _396
REMARK  158  A    between atoms: _396  and  _397
REMARK  159  A    between atoms: _396  and  _399
REMARK  160  A    between atoms: _401  and  _403
REMARK  161  A    between atoms: _403  and  _404
REMARK  162  A    between atoms: _403  and  _406
REMARK  163  A    between atoms: _406  and  _407
REMARK  164  A    between atoms: _407  and  _408
REMARK  165  A    between atoms: _410  and  _412
REMARK  166  A    between atoms: _412  and  _413
REMARK  167  A    between atoms: _412  and  _415
REMARK  168  A    between atoms: _415  and  _416
REMARK  169  A    between atoms: _419  and  _421
REMARK  170  A    between atoms: _421  and  _422
REMARK  171  A    between atoms: _421  and  _424
REMARK  172  A    between atoms: _424  and  _425
REMARK  173  A    between atoms: _428  and  _430
REMARK  174  A    between atoms: _430  and  _431
REMARK  175  A    between atoms: _430  and  _433
REMARK  176  A    between atoms: _433  and  _434
REMARK  177  A    between atoms: _434  and  _435
REMARK  178  A    between atoms: _435  and  _436
REMARK  179  A    between atoms: _436  and  _437
REMARK  180  A    between atoms: _441  and  _443
REMARK  181  A    between atoms: _443  and  _444
REMARK  182  A    between atoms: _443  and  _446
REMARK  183  A    between atoms: _449  and  _451
REMARK  184  A    between atoms: _451  and  _452
REMARK  185  A    between atoms: _455  and  _457
REMARK  186  A    between atoms: _457  and  _458
REMARK  187  A    between atoms: _457  and  _460
REMARK  188  A    between atoms: _460  and  _461
REMARK  189  A    between atoms: _464  and  _466
REMARK  190  A    between atoms: _466  and  _467
REMARK  191  A    between atoms: _466  and  _469
REMARK  192  A    between atoms: _469  and  _470
REMARK  193  A    between atoms: _476  and  _478
REMARK  194  A    between atoms: _478  and  _479
REMARK  195  A    between atoms: _478  and  _481
REMARK  196  A    between atoms: _481  and  _482
REMARK  197  A    between atoms: _485  and  _487
REMARK  198  A    between atoms: _487  and  _488
REMARK  199  A    between atoms: _491  and  _493
REMARK  200  A    between atoms: _493  and  _494
REMARK  201  A    between atoms: _493  and  _496
REMARK  202  A    between atoms: _496  and  _497
REMARK  203  A    between atoms: _497  and  _498
REMARK  204  A    between atoms: _498  and  _499
REMARK  205  A    between atoms: _508  and  _510
REMARK  206  A    between atoms: _510  and  _511
REMARK  207  A    between atoms: _510  and  _513
REMARK  208  A    between atoms: _513  and  _514
REMARK  209  A    between atoms: _517  and  _519
REMARK  210  A    between atoms: _519  and  _520
REMARK  211  A    between atoms: _519  and  _522
REMARK  212  A    between atoms: _522  and  _523
REMARK  213  A    between atoms: _523  and  _524
REMARK  214  A    between atoms: _526  and  _528
REMARK  215  A    between atoms: _528  and  _529
REMARK  216  A    between atoms: _528  and  _531
REMARK  217  A    between atoms: _531  and  _532
REMARK  218  A    between atoms: _537  and  _538
REMARK  219  A    between atoms: _540  and  _542
REMARK  220  A    between atoms: _542  and  _543
REMARK  221  A    between atoms: _542  and  _545
REMARK  222  A    between atoms: _545  and  _546
REMARK  223  A    between atoms: _549  and  _551
REMARK  224  A    between atoms: _551  and  _552
REMARK  225  A    between atoms: _551  and  _554
REMARK  226  A    between atoms: _554  and  _555
REMARK  227  A    between atoms: _560  and  _561
REMARK  228  A    between atoms: _563  and  _565
REMARK  229  A    between atoms: _565  and  _566
REMARK  230  A    between atoms: _565  and  _568
REMARK  231  A    between atoms: _568  and  _569
REMARK  232  A    between atoms: _569  and  _570
REMARK  233  A    between atoms: _570  and  _571
REMARK  234  A    between atoms: _571  and  _572
REMARK                            x       y       z     vdW  Elec       q    Type
REMARK                         _______ _______ _______ _____ _____    ______ ____
ROOT
ATOM      1  O   HOH     1      -9.720 -23.187  13.304  0.00  0.00    +0.000 OA
ENDROOT
TORSDOF 0
REMARK  Name = ../refined-set-2016/4gg7/4gg7_pocket.pdb
REMARK  234 active torsions:
REMARK  status: ('A' for Active; 'I' for Inactive)
REMARK    1  A    between atoms: _1  and  _3
REMARK    2  A    between atoms: _3  and  _4
REMARK    3  A    between atoms: _3  and  _6
REMARK    4  A    between atoms: _9  and  _11
REMARK    5  A    between atoms: _11  and  _12
REMARK    6  A    between atoms: _11  and  _14
REMARK    7  A    between atoms: _14  and  _15
REMARK    8  A    between atoms: _18  and  _20
REMARK    9  A    between atoms: _20  and  _21
REMARK   10  A    between atoms: _23  and  _25
REMARK   11  A    between atoms: _25  and  _26
REMARK   12  A    between atoms: _25  and  _28
REMARK   13  A    between atoms: _28  and  _29
REMARK   14  A    between atoms: _29  and  _30
REMARK   15  A    between atoms: _30  and  _31
REMARK   16  A    between atoms: _40  and  _42
REMARK   17  A    between atoms: _42  and  _43
REMARK   18  A    between atoms: _45  and  _47
REMARK   19  A    between atoms: _47  and  _48
REMARK   20  A    between atoms: _50  and  _52
REMARK   21  A    between atoms: _52  and  _53
REMARK   22  A    between atoms: _52  and  _55
REMARK   23  A    between atoms: _57  and  _59
REMARK   24  A    between atoms: _59  and  _60
REMARK   25  A    between atoms: _59  and  _62
REMARK   26  A    between atoms: _65  and  _67
REMARK   27  A    between atoms: _67  and  _68
REMARK   28  A    between atoms: _67  and  _70
REMARK   29  A    between atoms: _70  and  _71
REMARK   30  A    between atoms: _76  and  _77
REMARK   31  A    between atoms: _79  and  _81
REMARK   32  A    between atoms: _81  and  _82
REMARK   33  A    between atoms: _81  and  _84
REMARK   34  A    between atoms: _84  and  _85
REMARK   35  A    between atoms: _90  and  _92
REMARK   36  A    between atoms: _92  and  _93
REMARK   37  A    between atoms: _92  and  _95
REMARK   38  A    between atoms: _95  and  _96
REMARK   39  A    between atoms: _101  and  _103
REMARK   40  A    between atoms: _103  and  _104
REMARK   41  A    between atoms: _103  and  _106
REMARK   42  A    between atoms: _108  and  _110
REMARK   43  A    between atoms: _110  and  _111
REMARK   44  A    between atoms: _114  and  _116
REMARK   45  A    between atoms: _116  and  _117
REMARK   46  A    between atoms: _116  and  _119
REMARK   47  A    between atoms: _122  and  _124
REMARK   48  A    between atoms: _124  and  _125
REMARK   49  A    between atoms: _124  and  _127
REMARK   50  A    between atoms: _127  and  _128
REMARK   51  A    between atoms: _128  and  _129
REMARK   52  A    between atoms: _129  and  _130
REMARK   53  A    between atoms: _130  and  _131
REMARK   54  A    between atoms: _135  and  _137
REMARK   55  A    between atoms: _137  and  _138
REMARK   56  A    between atoms: _137  and  _140
REMARK   57  A    between atoms: _140  and  _141
REMARK   58  A    between atoms: _141  and  _142
REMARK   59  A    between atoms: _144  and  _146
REMARK   60  A    between atoms: _146  and  _147
REMARK   61  A    between atoms: _146  and  _149
REMARK   62  A    between atoms: _149  and  _150
REMARK   63  A    between atoms: _153  and  _155
REMARK   64  A    between atoms: _155  and  _156
REMARK   65  A    between atoms: _155  and  _158
REMARK   66  A    between atoms: _158  and  _159
REMARK   67  A    between atoms: _161  and  _163
REMARK   68  A    between atoms: _163  and  _164
REMARK   69  A    between atoms: _163  and  _166
REMARK   70  A    between atoms: _166  and  _167
REMARK   71  A    between atoms: _170  and  _172
REMARK   72  A    between atoms: _172  and  _173
REMARK   73  A    between atoms: _172  and  _175
REMARK   74  A    between atoms: _178  and  _180
REMARK   75  A    between atoms: _180  and  _181
REMARK   76  A    between atoms: _180  and  _183
REMARK   77  A    between atoms: _186  and  _188
REMARK   78  A    between atoms: _188  and  _189
REMARK   79  A    between atoms: _188  and  _191
REMARK   80  A    between atoms: _191  and  _192
REMARK   81  A    between atoms: _196  and  _197
REMARK   82  A    between atoms: _202  and  _204
REMARK   83  A    between atoms: _204  and  _205
REMARK   84  A    between atoms: _204  and  _207
REMARK   85  A    between atoms: _207  and  _208
REMARK   86  A    between atoms: _213  and  _214
REMARK   87  A    between atoms: _216  and  _218
REMARK   88  A    between atoms: _218  and  _219
REMARK   89  A    between atoms: _218  and  _221
REMARK   90  A    between atoms: _221  and  _222
REMARK   91  A    between atoms: _222  and  _223
REMARK   92  A    between atoms: _225  and  _227
REMARK   93  A    between atoms: _227  and  _228
REMARK   94  A    between atoms: _227  and  _230
REMARK   95  A    between atoms: _230  and  _231
REMARK   96  A    between atoms: _231  and  _232
REMARK   97  A    between atoms: _232  and  _233
REMARK   98  A    between atoms: _233  and  _234
REMARK   99  A    between atoms: _238  and  _240
REMARK  100  A    between atoms: _240  and  _241
REMARK  101  A    between atoms: _240  and  _243
REMARK  102  A    between atoms: _243  and  _244
REMARK  103  A    between atoms: _249  and  _251
REMARK  104  A    between atoms: _251  and  _252
REMARK  105  A    between atoms: _254  and  _256
REMARK  106  A    between atoms: _256  and  _257
REMARK  107  A    between atoms: _256  and  _259
REMARK  108  A    between atoms: _259  and  _260
REMARK  109  A    between atoms: _263  and  _265
REMARK  110  A    between atoms: _265  and  _266
REMARK  111  A    between atoms: _265  and  _268
REMARK  112  A    between atoms: _268  and  _269
REMARK  113  A    between atoms: _272  and  _274
REMARK  114  A    between atoms: _274  and  _275
REMARK  115  A    between atoms: _274  and  _277
REMARK  116  A    between atoms: _277  and  _278
REMARK  117  A    between atoms: _278  and  _279
REMARK  118  A    between atoms: _279  and  _280
REMARK  119  A    between atoms: _289  and  _291
REMARK  120  A    between atoms: _291  and  _292
REMARK  121  A    between atoms: _291  and  _294
REMARK  122  A    between atoms: _294  and  _295
REMARK  123  A    between atoms: _300  and  _302
REMARK  124  A    between atoms: _302  and  _303
REMARK  125  A    between atoms: _302  and  _305
REMARK  126  A    between atoms: _305  and  _306
REMARK  127  A    between atoms: _312  and  _314
REMARK  128  A    between atoms: _314  and  _315
REMARK  129  A    between atoms: _314  and  _317
REMARK  130  A    between atoms: _317  and  _318
REMARK  131  A    between atoms: _323  and  _325
REMARK  132  A    between atoms: _325  and  _326
REMARK  133  A    between atoms: _325  and  _328
REMARK  134  A    between atoms: _328  and  _329
REMARK  135  A    between atoms: _334  and  _336
REMARK  136  A    between atoms: _336  and  _337
REMARK  137  A    between atoms: _336  and  _339
REMARK  138  A    between atoms: _339  and  _340
REMARK  139  A    between atoms: _345  and  _347
REMARK  140  A    between atoms: _347  and  _348
REMARK  141  A    between atoms: _347  and  _350
REMARK  142  A    between atoms: _350  and  _351
REMARK  143  A    between atoms: _354  and  _356
REMARK  144  A    between atoms: _356  and  _357
REMARK  145  A    between atoms: _360  and  _362
REMARK  146  A    between atoms: _362  and  _363
REMARK  147  A    between atoms: _366  and  _368
REMARK  148  A    between atoms: _368  and  _369
REMARK  149  A    between atoms: _368  and  _371
REMARK  150  A    between atoms: _371  and  _372
REMARK  151  A    between atoms: _372  and  _373
REMARK  152  A    between atoms: _373  and  _374
REMARK  153  A    between atoms: _383  and  _385
REMARK  154  A    between atoms: _385  and  _386
REMARK  155  A    between atoms: _385  and  _388
REMARK  156  A    between atoms: _388  and  _389
REMARK  157  A    between atoms: _394  and  _396
REMARK  158  A    between atoms: _396  and  _397
REMARK  159  A    between atoms: _396  and  _399
REMARK  160  A    between atoms: _401  and  _403
REMARK  161  A    between atoms: _403  and  _404
REMARK  162  A    between atoms: _403  and  _406
REMARK  163  A    between atoms: _406  and  _407
REMARK  164  A    between atoms: _407  and  _408
REMARK  165  A    between atoms: _410  and  _412
REMARK  166  A    between atoms: _412  and  _413
REMARK  167  A    between atoms: _412  and  _415
REMARK  168  A    between atoms: _415  and  _416
REMARK  169  A    between atoms: _419  and  _421
REMARK  170  A    between atoms: _421  and  _422
REMARK  171  A    between atoms: _421  and  _424
REMARK  172  A    between atoms: _424  and  _425
REMARK  173  A    between atoms: _428  and  _430
REMARK  174  A    between atoms: _430  and  _431
REMARK  175  A    between atoms: _430  and  _433
REMARK  176  A    between atoms: _433  and  _434
REMARK  177  A    between atoms: _434  and  _435
REMARK  178  A    between atoms: _435  and  _436
REMARK  179  A    between atoms: _436  and  _437
REMARK  180  A    between atoms: _441  and  _443
REMARK  181  A    between atoms: _443  and  _444
REMARK  182  A    between atoms: _443  and  _446
REMARK  183  A    between atoms: _449  and  _451
REMARK  184  A    between atoms: _451  and  _452
REMARK  185  A    between atoms: _455  and  _457
REMARK  186  A    between atoms: _457  and  _458
REMARK  187  A    between atoms: _457  and  _460
REMARK  188  A    between atoms: _460  and  _461
REMARK  189  A    between atoms: _464  and  _466
REMARK  190  A    between atoms: _466  and  _467
REMARK  191  A    between atoms: _466  and  _469
REMARK  192  A    between atoms: _469  and  _470
REMARK  193  A    between atoms: _476  and  _478
REMARK  194  A    between atoms: _478  and  _479
REMARK  195  A    between atoms: _478  and  _481
REMARK  196  A    between atoms: _481  and  _482
REMARK  197  A    between atoms: _485  and  _487
REMARK  198  A    between atoms: _487  and  _488
REMARK  199  A    between atoms: _491  and  _493
REMARK  200  A    between atoms: _493  and  _494
REMARK  201  A    between atoms: _493  and  _496
REMARK  202  A    between atoms: _496  and  _497
REMARK  203  A    between atoms: _497  and  _498
REMARK  204  A    between atoms: _498  and  _499
REMARK  205  A    between atoms: _508  and  _510
REMARK  206  A    between atoms: _510  and  _511
REMARK  207  A    between atoms: _510  and  _513
REMARK  208  A    between atoms: _513  and  _514
REMARK  209  A    between atoms: _517  and  _519
REMARK  210  A    between atoms: _519  and  _520
REMARK  211  A    between atoms: _519  and  _522
REMARK  212  A    between atoms: _522  and  _523
REMARK  213  A    between atoms: _523  and  _524
REMARK  214  A    between atoms: _526  and  _528
REMARK  215  A    between atoms: _528  and  _529
REMARK  216  A    between atoms: _528  and  _531
REMARK  217  A    between atoms: _531  and  _532
REMARK  218  A    between atoms: _537  and  _538
REMARK  219  A    between atoms: _540  and  _542
REMARK  220  A    between atoms: _542  and  _543
REMARK  221  A    between atoms: _542  and  _545
REMARK  222  A    between atoms: _545  and  _546
REMARK  223  A    between atoms: _549  and  _551
REMARK  224  A    between atoms: _551  and  _552
REMARK  225  A    between atoms: _551  and  _554
REMARK  226  A    between atoms: _554  and  _555
REMARK  227  A    between atoms: _560  and  _561
REMARK  228  A    between atoms: _563  and  _565
REMARK  229  A    between atoms: _565  and  _566
REMARK  230  A    between atoms: _565  and  _568
REMARK  231  A    between atoms: _568  and  _569
REMARK  232  A    between atoms: _569  and  _570
REMARK  233  A    between atoms: _570  and  _571
REMARK  234  A    between atoms: _571  and  _572
REMARK                            x       y       z     vdW  Elec       q    Type
REMARK                         _______ _______ _______ _____ _____    ______ ____
ROOT
ATOM      1  O   HOH     1       2.421  -7.185  20.285  0.00  0.00    +0.000 OA
ENDROOT
TORSDOF 0
REMARK  Name = ../refined-set-2016/4gg7/4gg7_pocket.pdb
REMARK  234 active torsions:
REMARK  status: ('A' for Active; 'I' for Inactive)
REMARK    1  A    between atoms: _1  and  _3
REMARK    2  A    between atoms: _3  and  _4
REMARK    3  A    between atoms: _3  and  _6
REMARK    4  A    between atoms: _9  and  _11
REMARK    5  A    between atoms: _11  and  _12
REMARK    6  A    between atoms: _11  and  _14
REMARK    7  A    between atoms: _14  and  _15
REMARK    8  A    between atoms: _18  and  _20
REMARK    9  A    between atoms: _20  and  _21
REMARK   10  A    between atoms: _23  and  _25
REMARK   11  A    between atoms: _25  and  _26
REMARK   12  A    between atoms: _25  and  _28
REMARK   13  A    between atoms: _28  and  _29
REMARK   14  A    between atoms: _29  and  _30
REMARK   15  A    between atoms: _30  and  _31
REMARK   16  A    between atoms: _40  and  _42
REMARK   17  A    between atoms: _42  and  _43
REMARK   18  A    between atoms: _45  and  _47
REMARK   19  A    between atoms: _47  and  _48
REMARK   20  A    between atoms: _50  and  _52
REMARK   21  A    between atoms: _52  and  _53
REMARK   22  A    between atoms: _52  and  _55
REMARK   23  A    between atoms: _57  and  _59
REMARK   24  A    between atoms: _59  and  _60
REMARK   25  A    between atoms: _59  and  _62
REMARK   26  A    between atoms: _65  and  _67
REMARK   27  A    between atoms: _67  and  _68
REMARK   28  A    between atoms: _67  and  _70
REMARK   29  A    between atoms: _70  and  _71
REMARK   30  A    between atoms: _76  and  _77
REMARK   31  A    between atoms: _79  and  _81
REMARK   32  A    between atoms: _81  and  _82
REMARK   33  A    between atoms: _81  and  _84
REMARK   34  A    between atoms: _84  and  _85
REMARK   35  A    between atoms: _90  and  _92
REMARK   36  A    between atoms: _92  and  _93
REMARK   37  A    between atoms: _92  and  _95
REMARK   38  A    between atoms: _95  and  _96
REMARK   39  A    between atoms: _101  and  _103
REMARK   40  A    between atoms: _103  and  _104
REMARK   41  A    between atoms: _103  and  _106
REMARK   42  A    between atoms: _108  and  _110
REMARK   43  A    between atoms: _110  and  _111
REMARK   44  A    between atoms: _114  and  _116
REMARK   45  A    between atoms: _116  and  _117
REMARK   46  A    between atoms: _116  and  _119
REMARK   47  A    between atoms: _122  and  _124
REMARK   48  A    between atoms: _124  and  _125
REMARK   49  A    between atoms: _124  and  _127
REMARK   50  A    between atoms: _127  and  _128
REMARK   51  A    between atoms: _128  and  _129
REMARK   52  A    between atoms: _129  and  _130
REMARK   53  A    between atoms: _130  and  _131
REMARK   54  A    between atoms: _135  and  _137
REMARK   55  A    between atoms: _137  and  _138
REMARK   56  A    between atoms: _137  and  _140
REMARK   57  A    between atoms: _140  and  _141
REMARK   58  A    between atoms: _141  and  _142
REMARK   59  A    between atoms: _144  and  _146
REMARK   60  A    between atoms: _146  and  _147
REMARK   61  A    between atoms: _146  and  _149
REMARK   62  A    between atoms: _149  and  _150
REMARK   63  A    between atoms: _153  and  _155
REMARK   64  A    between atoms: _155  and  _156
REMARK   65  A    between atoms: _155  and  _158
REMARK   66  A    between atoms: _158  and  _159
REMARK   67  A    between atoms: _161  and  _163
REMARK   68  A    between atoms: _163  and  _164
REMARK   69  A    between atoms: _163  and  _166
REMARK   70  A    between atoms: _166  and  _167
REMARK   71  A    between atoms: _170  and  _172
REMARK   72  A    between atoms: _172  and  _173
REMARK   73  A    between atoms: _172  and  _175
REMARK   74  A    between atoms: _178  and  _180
REMARK   75  A    between atoms: _180  and  _181
REMARK   76  A    between atoms: _180  and  _183
REMARK   77  A    between atoms: _186  and  _188
REMARK   78  A    between atoms: _188  and  _189
REMARK   79  A    between atoms: _188  and  _191
REMARK   80  A    between atoms: _191  and  _192
REMARK   81  A    between atoms: _196  and  _197
REMARK   82  A    between atoms: _202  and  _204
REMARK   83  A    between atoms: _204  and  _205
REMARK   84  A    between atoms: _204  and  _207
REMARK   85  A    between atoms: _207  and  _208
REMARK   86  A    between atoms: _213  and  _214
REMARK   87  A    between atoms: _216  and  _218
REMARK   88  A    between atoms: _218  and  _219
REMARK   89  A    between atoms: _218  and  _221
REMARK   90  A    between atoms: _221  and  _222
REMARK   91  A    between atoms: _222  and  _223
REMARK   92  A    between atoms: _225  and  _227
REMARK   93  A    between atoms: _227  and  _228
REMARK   94  A    between atoms: _227  and  _230
REMARK   95  A    between atoms: _230  and  _231
REMARK   96  A    between atoms: _231  and  _232
REMARK   97  A    between atoms: _232  and  _233
REMARK   98  A    between atoms: _233  and  _234
REMARK   99  A    between atoms: _238  and  _240
REMARK  100  A    between atoms: _240  and  _241
REMARK  101  A    between atoms: _240  and  _243
REMARK  102  A    between atoms: _243  and  _244
REMARK  103  A    between atoms: _249  and  _251
REMARK  104  A    between atoms: _251  and  _252
REMARK  105  A    between atoms: _254  and  _256
REMARK  106  A    between atoms: _256  and  _257
REMARK  107  A    between atoms: _256  and  _259
REMARK  108  A    between atoms: _259  and  _260
REMARK  109  A    between atoms: _263  and  _265
REMARK  110  A    between atoms: _265  and  _266
REMARK  111  A    between atoms: _265  and  _268
REMARK  112  A    between atoms: _268  and  _269
REMARK  113  A    between atoms: _272  and  _274
REMARK  114  A    between atoms: _274  and  _275
REMARK  115  A    between atoms: _274  and  _277
REMARK  116  A    between atoms: _277  and  _278
REMARK  117  A    between atoms: _278  and  _279
REMARK  118  A    between atoms: _279  and  _280
REMARK  119  A    between atoms: _289  and  _291
REMARK  120  A    between atoms: _291  and  _292
REMARK  121  A    between atoms: _291  and  _294
REMARK  122  A    between atoms: _294  and  _295
REMARK  123  A    between atoms: _300  and  _302
REMARK  124  A    between atoms: _302  and  _303
REMARK  125  A    between atoms: _302  and  _305
REMARK  126  A    between atoms: _305  and  _306
REMARK  127  A    between atoms: _312  and  _314
REMARK  128  A    between atoms: _314  and  _315
REMARK  129  A    between atoms: _314  and  _317
REMARK  130  A    between atoms: _317  and  _318
REMARK  131  A    between atoms: _323  and  _325
REMARK  132  A    between atoms: _325  and  _326
REMARK  133  A    between atoms: _325  and  _328
REMARK  134  A    between atoms: _328  and  _329
REMARK  135  A    between atoms: _334  and  _336
REMARK  136  A    between atoms: _336  and  _337
REMARK  137  A    between atoms: _336  and  _339
REMARK  138  A    between atoms: _339  and  _340
REMARK  139  A    between atoms: _345  and  _347
REMARK  140  A    between atoms: _347  and  _348
REMARK  141  A    between atoms: _347  and  _350
REMARK  142  A    between atoms: _350  and  _351
REMARK  143  A    between atoms: _354  and  _356
REMARK  144  A    between atoms: _356  and  _357
REMARK  145  A    between atoms: _360  and  _362
REMARK  146  A    between atoms: _362  and  _363
REMARK  147  A    between atoms: _366  and  _368
REMARK  148  A    between atoms: _368  and  _369
REMARK  149  A    between atoms: _368  and  _371
REMARK  150  A    between atoms: _371  and  _372
REMARK  151  A    between atoms: _372  and  _373
REMARK  152  A    between atoms: _373  and  _374
REMARK  153  A    between atoms: _383  and  _385
REMARK  154  A    between atoms: _385  and  _386
REMARK  155  A    between atoms: _385  and  _388
REMARK  156  A    between atoms: _388  and  _389
REMARK  157  A    between atoms: _394  and  _396
REMARK  158  A    between atoms: _396  and  _397
REMARK  159  A    between atoms: _396  and  _399
REMARK  160  A    between atoms: _401  and  _403
REMARK  161  A    between atoms: _403  and  _404
REMARK  162  A    between atoms: _403  and  _406
REMARK  163  A    between atoms: _406  and  _407
REMARK  164  A    between atoms: _407  and  _408
REMARK  165  A    between atoms: _410  and  _412
REMARK  166  A    between atoms: _412  and  _413
REMARK  167  A    between atoms: _412  and  _415
REMARK  168  A    between atoms: _415  and  _416
REMARK  169  A    between atoms: _419  and  _421
REMARK  170  A    between atoms: _421  and  _422
REMARK  171  A    between atoms: _421  and  _424
REMARK  172  A    between atoms: _424  and  _425
REMARK  173  A    between atoms: _428  and  _430
REMARK  174  A    between atoms: _430  and  _431
REMARK  175  A    between atoms: _430  and  _433
REMARK  176  A    between atoms: _433  and  _434
REMARK  177  A    between atoms: _434  and  _435
REMARK  178  A    between atoms: _435  and  _436
REMARK  179  A    between atoms: _436  and  _437
REMARK  180  A    between atoms: _441  and  _443
REMARK  181  A    between atoms: _443  and  _444
REMARK  182  A    between atoms: _443  and  _446
REMARK  183  A    between atoms: _449  and  _451
REMARK  184  A    between atoms: _451  and  _452
REMARK  185  A    between atoms: _455  and  _457
REMARK  186  A    between atoms: _457  and  _458
REMARK  187  A    between atoms: _457  and  _460
REMARK  188  A    between atoms: _460  and  _461
REMARK  189  A    between atoms: _464  and  _466
REMARK  190  A    between atoms: _466  and  _467
REMARK  191  A    between atoms: _466  and  _469
REMARK  192  A    between atoms: _469  and  _470
REMARK  193  A    between atoms: _476  and  _478
REMARK  194  A    between atoms: _478  and  _479
REMARK  195  A    between atoms: _478  and  _481
REMARK  196  A    between atoms: _481  and  _482
REMARK  197  A    between atoms: _485  and  _487
REMARK  198  A    between atoms: _487  and  _488
REMARK  199  A    between atoms: _491  and  _493
REMARK  200  A    between atoms: _493  and  _494
REMARK  201  A    between atoms: _493  and  _496
REMARK  202  A    between atoms: _496  and  _497
REMARK  203  A    between atoms: _497  and  _498
REMARK  204  A    between atoms: _498  and  _499
REMARK  205  A    between atoms: _508  and  _510
REMARK  206  A    between atoms: _510  and  _511
REMARK  207  A    between atoms: _510  and  _513
REMARK  208  A    between atoms: _513  and  _514
REMARK  209  A    between atoms: _517  and  _519
REMARK  210  A    between atoms: _519  and  _520
REMARK  211  A    between atoms: _519  and  _522
REMARK  212  A    between atoms: _522  and  _523
REMARK  213  A    between atoms: _523  and  _524
REMARK  214  A    between atoms: _526  and  _528
REMARK  215  A    between atoms: _528  and  _529
REMARK  216  A    between atoms: _528  and  _531
REMARK  217  A    between atoms: _531  and  _532
REMARK  218  A    between atoms: _537  and  _538
REMARK  219  A    between atoms: _540  and  _542
REMARK  220  A    between atoms: _542  and  _543
REMARK  221  A    between atoms: _542  and  _545
REMARK  222  A    between atoms: _545  and  _546
REMARK  223  A    between atoms: _549  and  _551
REMARK  224  A    between atoms: _551  and  _552
REMARK  225  A    between atoms: _551  and  _554
REMARK  226  A    between atoms: _554  and  _555
REMARK  227  A    between atoms: _560  and  _561
REMARK  228  A    between atoms: _563  and  _565
REMARK  229  A    between atoms: _565  and  _566
REMARK  230  A    between atoms: _565  and  _568
REMARK  231  A    between atoms: _568  and  _569
REMARK  232  A    between atoms: _569  and  _570
REMARK  233  A    between atoms: _570  and  _571
REMARK  234  A    between atoms: _571  and  _572
REMARK                            x       y       z     vdW  Elec       q    Type
REMARK                         _______ _______ _______ _____ _____    ______ ____
ROOT
ATOM      1  O   HOH     1      -8.102 -11.755  20.377  0.00  0.00    +0.000 OA
ENDROOT
TORSDOF 0
REMARK  Name = ../refined-set-2016/4gg7/4gg7_pocket.pdb
REMARK  234 active torsions:
REMARK  status: ('A' for Active; 'I' for Inactive)
REMARK    1  A    between atoms: _1  and  _3
REMARK    2  A    between atoms: _3  and  _4
REMARK    3  A    between atoms: _3  and  _6
REMARK    4  A    between atoms: _9  and  _11
REMARK    5  A    between atoms: _11  and  _12
REMARK    6  A    between atoms: _11  and  _14
REMARK    7  A    between atoms: _14  and  _15
REMARK    8  A    between atoms: _18  and  _20
REMARK    9  A    between atoms: _20  and  _21
REMARK   10  A    between atoms: _23  and  _25
REMARK   11  A    between atoms: _25  and  _26
REMARK   12  A    between atoms: _25  and  _28
REMARK   13  A    between atoms: _28  and  _29
REMARK   14  A    between atoms: _29  and  _30
REMARK   15  A    between atoms: _30  and  _31
REMARK   16  A    between atoms: _40  and  _42
REMARK   17  A    between atoms: _42  and  _43
REMARK   18  A    between atoms: _45  and  _47
REMARK   19  A    between atoms: _47  and  _48
REMARK   20  A    between atoms: _50  and  _52
REMARK   21  A    between atoms: _52  and  _53
REMARK   22  A    between atoms: _52  and  _55
REMARK   23  A    between atoms: _57  and  _59
REMARK   24  A    between atoms: _59  and  _60
REMARK   25  A    between atoms: _59  and  _62
REMARK   26  A    between atoms: _65  and  _67
REMARK   27  A    between atoms: _67  and  _68
REMARK   28  A    between atoms: _67  and  _70
REMARK   29  A    between atoms: _70  and  _71
REMARK   30  A    between atoms: _76  and  _77
REMARK   31  A    between atoms: _79  and  _81
REMARK   32  A    between atoms: _81  and  _82
REMARK   33  A    between atoms: _81  and  _84
REMARK   34  A    between atoms: _84  and  _85
REMARK   35  A    between atoms: _90  and  _92
REMARK   36  A    between atoms: _92  and  _93
REMARK   37  A    between atoms: _92  and  _95
REMARK   38  A    between atoms: _95  and  _96
REMARK   39  A    between atoms: _101  and  _103
REMARK   40  A    between atoms: _103  and  _104
REMARK   41  A    between atoms: _103  and  _106
REMARK   42  A    between atoms: _108  and  _110
REMARK   43  A    between atoms: _110  and  _111
REMARK   44  A    between atoms: _114  and  _116
REMARK   45  A    between atoms: _116  and  _117
REMARK   46  A    between atoms: _116  and  _119
REMARK   47  A    between atoms: _122  and  _124
REMARK   48  A    between atoms: _124  and  _125
REMARK   49  A    between atoms: _124  and  _127
REMARK   50  A    between atoms: _127  and  _128
REMARK   51  A    between atoms: _128  and  _129
REMARK   52  A    between atoms: _129  and  _130
REMARK   53  A    between atoms: _130  and  _131
REMARK   54  A    between atoms: _135  and  _137
REMARK   55  A    between atoms: _137  and  _138
REMARK   56  A    between atoms: _137  and  _140
REMARK   57  A    between atoms: _140  and  _141
REMARK   58  A    between atoms: _141  and  _142
REMARK   59  A    between atoms: _144  and  _146
REMARK   60  A    between atoms: _146  and  _147
REMARK   61  A    between atoms: _146  and  _149
REMARK   62  A    between atoms: _149  and  _150
REMARK   63  A    between atoms: _153  and  _155
REMARK   64  A    between atoms: _155  and  _156
REMARK   65  A    between atoms: _155  and  _158
REMARK   66  A    between atoms: _158  and  _159
REMARK   67  A    between atoms: _161  and  _163
REMARK   68  A    between atoms: _163  and  _164
REMARK   69  A    between atoms: _163  and  _166
REMARK   70  A    between atoms: _166  and  _167
REMARK   71  A    between atoms: _170  and  _172
REMARK   72  A    between atoms: _172  and  _173
REMARK   73  A    between atoms: _172  and  _175
REMARK   74  A    between atoms: _178  and  _180
REMARK   75  A    between atoms: _180  and  _181
REMARK   76  A    between atoms: _180  and  _183
REMARK   77  A    between atoms: _186  and  _188
REMARK   78  A    between atoms: _188  and  _189
REMARK   79  A    between atoms: _188  and  _191
REMARK   80  A    between atoms: _191  and  _192
REMARK   81  A    between atoms: _196  and  _197
REMARK   82  A    between atoms: _202  and  _204
REMARK   83  A    between atoms: _204  and  _205
REMARK   84  A    between atoms: _204  and  _207
REMARK   85  A    between atoms: _207  and  _208
REMARK   86  A    between atoms: _213  and  _214
REMARK   87  A    between atoms: _216  and  _218
REMARK   88  A    between atoms: _218  and  _219
REMARK   89  A    between atoms: _218  and  _221
REMARK   90  A    between atoms: _221  and  _222
REMARK   91  A    between atoms: _222  and  _223
REMARK   92  A    between atoms: _225  and  _227
REMARK   93  A    between atoms: _227  and  _228
REMARK   94  A    between atoms: _227  and  _230
REMARK   95  A    between atoms: _230  and  _231
REMARK   96  A    between atoms: _231  and  _232
REMARK   97  A    between atoms: _232  and  _233
REMARK   98  A    between atoms: _233  and  _234
REMARK   99  A    between atoms: _238  and  _240
REMARK  100  A    between atoms: _240  and  _241
REMARK  101  A    between atoms: _240  and  _243
REMARK  102  A    between atoms: _243  and  _244
REMARK  103  A    between atoms: _249  and  _251
REMARK  104  A    between atoms: _251  and  _252
REMARK  105  A    between atoms: _254  and  _256
REMARK  106  A    between atoms: _256  and  _257
REMARK  107  A    between atoms: _256  and  _259
REMARK  108  A    between atoms: _259  and  _260
REMARK  109  A    between atoms: _263  and  _265
REMARK  110  A    between atoms: _265  and  _266
REMARK  111  A    between atoms: _265  and  _268
REMARK  112  A    between atoms: _268  and  _269
REMARK  113  A    between atoms: _272  and  _274
REMARK  114  A    between atoms: _274  and  _275
REMARK  115  A    between atoms: _274  and  _277
REMARK  116  A    between atoms: _277  and  _278
REMARK  117  A    between atoms: _278  and  _279
REMARK  118  A    between atoms: _279  and  _280
REMARK  119  A    between atoms: _289  and  _291
REMARK  120  A    between atoms: _291  and  _292
REMARK  121  A    between atoms: _291  and  _294
REMARK  122  A    between atoms: _294  and  _295
REMARK  123  A    between atoms: _300  and  _302
REMARK  124  A    between atoms: _302  and  _303
REMARK  125  A    between atoms: _302  and  _305
REMARK  126  A    between atoms: _305  and  _306
REMARK  127  A    between atoms: _312  and  _314
REMARK  128  A    between atoms: _314  and  _315
REMARK  129  A    between atoms: _314  and  _317
REMARK  130  A    between atoms: _317  and  _318
REMARK  131  A    between atoms: _323  and  _325
REMARK  132  A    between atoms: _325  and  _326
REMARK  133  A    between atoms: _325  and  _328
REMARK  134  A    between atoms: _328  and  _329
REMARK  135  A    between atoms: _334  and  _336
REMARK  136  A    between atoms: _336  and  _337
REMARK  137  A    between atoms: _336  and  _339
REMARK  138  A    between atoms: _339  and  _340
REMARK  139  A    between atoms: _345  and  _347
REMARK  140  A    between atoms: _347  and  _348
REMARK  141  A    between atoms: _347  and  _350
REMARK  142  A    between atoms: _350  and  _351
REMARK  143  A    between atoms: _354  and  _356
REMARK  144  A    between atoms: _356  and  _357
REMARK  145  A    between atoms: _360  and  _362
REMARK  146  A    between atoms: _362  and  _363
REMARK  147  A    between atoms: _366  and  _368
REMARK  148  A    between atoms: _368  and  _369
REMARK  149  A    between atoms: _368  and  _371
REMARK  150  A    between atoms: _371  and  _372
REMARK  151  A    between atoms: _372  and  _373
REMARK  152  A    between atoms: _373  and  _374
REMARK  153  A    between atoms: _383  and  _385
REMARK  154  A    between atoms: _385  and  _386
REMARK  155  A    between atoms: _385  and  _388
REMARK  156  A    between atoms: _388  and  _389
REMARK  157  A    between atoms: _394  and  _396
REMARK  158  A    between atoms: _396  and  _397
REMARK  159  A    between atoms: _396  and  _399
REMARK  160  A    between atoms: _401  and  _403
REMARK  161  A    between atoms: _403  and  _404
REMARK  162  A    between atoms: _403  and  _406
REMARK  163  A    between atoms: _406  and  _407
REMARK  164  A    between atoms: _407  and  _408
REMARK  165  A    between atoms: _410  and  _412
REMARK  166  A    between atoms: _412  and  _413
REMARK  167  A    between atoms: _412  and  _415
REMARK  168  A    between atoms: _415  and  _416
REMARK  169  A    between atoms: _419  and  _421
REMARK  170  A    between atoms: _421  and  _422
REMARK  171  A    between atoms: _421  and  _424
REMARK  172  A    between atoms: _424  and  _425
REMARK  173  A    between atoms: _428  and  _430
REMARK  174  A    between atoms: _430  and  _431
REMARK  175  A    between atoms: _430  and  _433
REMARK  176  A    between atoms: _433  and  _434
REMARK  177  A    between atoms: _434  and  _435
REMARK  178  A    between atoms: _435  and  _436
REMARK  179  A    between atoms: _436  and  _437
REMARK  180  A    between atoms: _441  and  _443
REMARK  181  A    between atoms: _443  and  _444
REMARK  182  A    between atoms: _443  and  _446
REMARK  183  A    between atoms: _449  and  _451
REMARK  184  A    between atoms: _451  and  _452
REMARK  185  A    between atoms: _455  and  _457
REMARK  186  A    between atoms: _457  and  _458
REMARK  187  A    between atoms: _457  and  _460
REMARK  188  A    between atoms: _460  and  _461
REMARK  189  A    between atoms: _464  and  _466
REMARK  190  A    between atoms: _466  and  _467
REMARK  191  A    between atoms: _466  and  _469
REMARK  192  A    between atoms: _469  and  _470
REMARK  193  A    between atoms: _476  and  _478
REMARK  194  A    between atoms: _478  and  _479
REMARK  195  A    between atoms: _478  and  _481
REMARK  196  A    between atoms: _481  and  _482
REMARK  197  A    between atoms: _485  and  _487
REMARK  198  A    between atoms: _487  and  _488
REMARK  199  A    between atoms: _491  and  _493
REMARK  200  A    between atoms: _493  and  _494
REMARK  201  A    between atoms: _493  and  _496
REMARK  202  A    between atoms: _496  and  _497
REMARK  203  A    between atoms: _497  and  _498
REMARK  204  A    between atoms: _498  and  _499
REMARK  205  A    between atoms: _508  and  _510
REMARK  206  A    between atoms: _510  and  _511
REMARK  207  A    between atoms: _510  and  _513
REMARK  208  A    between atoms: _513  and  _514
REMARK  209  A    between atoms: _517  and  _519
REMARK  210  A    between atoms: _519  and  _520
REMARK  211  A    between atoms: _519  and  _522
REMARK  212  A    between atoms: _522  and  _523
REMARK  213  A    between atoms: _523  and  _524
REMARK  214  A    between atoms: _526  and  _528
REMARK  215  A    between atoms: _528  and  _529
REMARK  216  A    between atoms: _528  and  _531
REMARK  217  A    between atoms: _531  and  _532
REMARK  218  A    between atoms: _537  and  _538
REMARK  219  A    between atoms: _540  and  _542
REMARK  220  A    between atoms: _542  and  _543
REMARK  221  A    between atoms: _542  and  _545
REMARK  222  A    between atoms: _545  and  _546
REMARK  223  A    between atoms: _549  and  _551
REMARK  224  A    between atoms: _551  and  _552
REMARK  225  A    between atoms: _551  and  _554
REMARK  226  A    between atoms: _554  and  _555
REMARK  227  A    between atoms: _560  and  _561
REMARK  228  A    between atoms: _563  and  _565
REMARK  229  A    between atoms: _565  and  _566
REMARK  230  A    between atoms: _565  and  _568
REMARK  231  A    between atoms: _568  and  _569
REMARK  232  A    between atoms: _569  and  _570
REMARK  233  A    between atoms: _570  and  _571
REMARK  234  A    between atoms: _571  and  _572
REMARK                            x       y       z     vdW  Elec       q    Type
REMARK                         _______ _______ _______ _____ _____    ______ ____
ROOT
ATOM      1  O   HOH     1      -7.264  -9.568  21.952  0.00  0.00    +0.000 OA
ENDROOT
TORSDOF 0
REMARK  Name = ../refined-set-2016/4gg7/4gg7_pocket.pdb
REMARK  234 active torsions:
REMARK  status: ('A' for Active; 'I' for Inactive)
REMARK    1  A    between atoms: _1  and  _3
REMARK    2  A    between atoms: _3  and  _4
REMARK    3  A    between atoms: _3  and  _6
REMARK    4  A    between atoms: _9  and  _11
REMARK    5  A    between atoms: _11  and  _12
REMARK    6  A    between atoms: _11  and  _14
REMARK    7  A    between atoms: _14  and  _15
REMARK    8  A    between atoms: _18  and  _20
REMARK    9  A    between atoms: _20  and  _21
REMARK   10  A    between atoms: _23  and  _25
REMARK   11  A    between atoms: _25  and  _26
REMARK   12  A    between atoms: _25  and  _28
REMARK   13  A    between atoms: _28  and  _29
REMARK   14  A    between atoms: _29  and  _30
REMARK   15  A    between atoms: _30  and  _31
REMARK   16  A    between atoms: _40  and  _42
REMARK   17  A    between atoms: _42  and  _43
REMARK   18  A    between atoms: _45  and  _47
REMARK   19  A    between atoms: _47  and  _48
REMARK   20  A    between atoms: _50  and  _52
REMARK   21  A    between atoms: _52  and  _53
REMARK   22  A    between atoms: _52  and  _55
REMARK   23  A    between atoms: _57  and  _59
REMARK   24  A    between atoms: _59  and  _60
REMARK   25  A    between atoms: _59  and  _62
REMARK   26  A    between atoms: _65  and  _67
REMARK   27  A    between atoms: _67  and  _68
REMARK   28  A    between atoms: _67  and  _70
REMARK   29  A    between atoms: _70  and  _71
REMARK   30  A    between atoms: _76  and  _77
REMARK   31  A    between atoms: _79  and  _81
REMARK   32  A    between atoms: _81  and  _82
REMARK   33  A    between atoms: _81  and  _84
REMARK   34  A    between atoms: _84  and  _85
REMARK   35  A    between atoms: _90  and  _92
REMARK   36  A    between atoms: _92  and  _93
REMARK   37  A    between atoms: _92  and  _95
REMARK   38  A    between atoms: _95  and  _96
REMARK   39  A    between atoms: _101  and  _103
REMARK   40  A    between atoms: _103  and  _104
REMARK   41  A    between atoms: _103  and  _106
REMARK   42  A    between atoms: _108  and  _110
REMARK   43  A    between atoms: _110  and  _111
REMARK   44  A    between atoms: _114  and  _116
REMARK   45  A    between atoms: _116  and  _117
REMARK   46  A    between atoms: _116  and  _119
REMARK   47  A    between atoms: _122  and  _124
REMARK   48  A    between atoms: _124  and  _125
REMARK   49  A    between atoms: _124  and  _127
REMARK   50  A    between atoms: _127  and  _128
REMARK   51  A    between atoms: _128  and  _129
REMARK   52  A    between atoms: _129  and  _130
REMARK   53  A    between atoms: _130  and  _131
REMARK   54  A    between atoms: _135  and  _137
REMARK   55  A    between atoms: _137  and  _138
REMARK   56  A    between atoms: _137  and  _140
REMARK   57  A    between atoms: _140  and  _141
REMARK   58  A    between atoms: _141  and  _142
REMARK   59  A    between atoms: _144  and  _146
REMARK   60  A    between atoms: _146  and  _147
REMARK   61  A    between atoms: _146  and  _149
REMARK   62  A    between atoms: _149  and  _150
REMARK   63  A    between atoms: _153  and  _155
REMARK   64  A    between atoms: _155  and  _156
REMARK   65  A    between atoms: _155  and  _158
REMARK   66  A    between atoms: _158  and  _159
REMARK   67  A    between atoms: _161  and  _163
REMARK   68  A    between atoms: _163  and  _164
REMARK   69  A    between atoms: _163  and  _166
REMARK   70  A    between atoms: _166  and  _167
REMARK   71  A    between atoms: _170  and  _172
REMARK   72  A    between atoms: _172  and  _173
REMARK   73  A    between atoms: _172  and  _175
REMARK   74  A    between atoms: _178  and  _180
REMARK   75  A    between atoms: _180  and  _181
REMARK   76  A    between atoms: _180  and  _183
REMARK   77  A    between atoms: _186  and  _188
REMARK   78  A    between atoms: _188  and  _189
REMARK   79  A    between atoms: _188  and  _191
REMARK   80  A    between atoms: _191  and  _192
REMARK   81  A    between atoms: _196  and  _197
REMARK   82  A    between atoms: _202  and  _204
REMARK   83  A    between atoms: _204  and  _205
REMARK   84  A    between atoms: _204  and  _207
REMARK   85  A    between atoms: _207  and  _208
REMARK   86  A    between atoms: _213  and  _214
REMARK   87  A    between atoms: _216  and  _218
REMARK   88  A    between atoms: _218  and  _219
REMARK   89  A    between atoms: _218  and  _221
REMARK   90  A    between atoms: _221  and  _222
REMARK   91  A    between atoms: _222  and  _223
REMARK   92  A    between atoms: _225  and  _227
REMARK   93  A    between atoms: _227  and  _228
REMARK   94  A    between atoms: _227  and  _230
REMARK   95  A    between atoms: _230  and  _231
REMARK   96  A    between atoms: _231  and  _232
REMARK   97  A    between atoms: _232  and  _233
REMARK   98  A    between atoms: _233  and  _234
REMARK   99  A    between atoms: _238  and  _240
REMARK  100  A    between atoms: _240  and  _241
REMARK  101  A    between atoms: _240  and  _243
REMARK  102  A    between atoms: _243  and  _244
REMARK  103  A    between atoms: _249  and  _251
REMARK  104  A    between atoms: _251  and  _252
REMARK  105  A    between atoms: _254  and  _256
REMARK  106  A    between atoms: _256  and  _257
REMARK  107  A    between atoms: _256  and  _259
REMARK  108  A    between atoms: _259  and  _260
REMARK  109  A    between atoms: _263  and  _265
REMARK  110  A    between atoms: _265  and  _266
REMARK  111  A    between atoms: _265  and  _268
REMARK  112  A    between atoms: _268  and  _269
REMARK  113  A    between atoms: _272  and  _274
REMARK  114  A    between atoms: _274  and  _275
REMARK  115  A    between atoms: _274  and  _277
REMARK  116  A    between atoms: _277  and  _278
REMARK  117  A    between atoms: _278  and  _279
REMARK  118  A    between atoms: _279  and  _280
REMARK  119  A    between atoms: _289  and  _291
REMARK  120  A    between atoms: _291  and  _292
REMARK  121  A    between atoms: _291  and  _294
REMARK  122  A    between atoms: _294  and  _295
REMARK  123  A    between atoms: _300  and  _302
REMARK  124  A    between atoms: _302  and  _303
REMARK  125  A    between atoms: _302  and  _305
REMARK  126  A    between atoms: _305  and  _306
REMARK  127  A    between atoms: _312  and  _314
REMARK  128  A    between atoms: _314  and  _315
REMARK  129  A    between atoms: _314  and  _317
REMARK  130  A    between atoms: _317  and  _318
REMARK  131  A    between atoms: _323  and  _325
REMARK  132  A    between atoms: _325  and  _326
REMARK  133  A    between atoms: _325  and  _328
REMARK  134  A    between atoms: _328  and  _329
REMARK  135  A    between atoms: _334  and  _336
REMARK  136  A    between atoms: _336  and  _337
REMARK  137  A    between atoms: _336  and  _339
REMARK  138  A    between atoms: _339  and  _340
REMARK  139  A    between atoms: _345  and  _347
REMARK  140  A    between atoms: _347  and  _348
REMARK  141  A    between atoms: _347  and  _350
REMARK  142  A    between atoms: _350  and  _351
REMARK  143  A    between atoms: _354  and  _356
REMARK  144  A    between atoms: _356  and  _357
REMARK  145  A    between atoms: _360  and  _362
REMARK  146  A    between atoms: _362  and  _363
REMARK  147  A    between atoms: _366  and  _368
REMARK  148  A    between atoms: _368  and  _369
REMARK  149  A    between atoms: _368  and  _371
REMARK  150  A    between atoms: _371  and  _372
REMARK  151  A    between atoms: _372  and  _373
REMARK  152  A    between atoms: _373  and  _374
REMARK  153  A    between atoms: _383  and  _385
REMARK  154  A    between atoms: _385  and  _386
REMARK  155  A    between atoms: _385  and  _388
REMARK  156  A    between atoms: _388  and  _389
REMARK  157  A    between atoms: _394  and  _396
REMARK  158  A    between atoms: _396  and  _397
REMARK  159  A    between atoms: _396  and  _399
REMARK  160  A    between atoms: _401  and  _403
REMARK  161  A    between atoms: _403  and  _404
REMARK  162  A    between atoms: _403  and  _406
REMARK  163  A    between atoms: _406  and  _407
REMARK  164  A    between atoms: _407  and  _408
REMARK  165  A    between atoms: _410  and  _412
REMARK  166  A    between atoms: _412  and  _413
REMARK  167  A    between atoms: _412  and  _415
REMARK  168  A    between atoms: _415  and  _416
REMARK  169  A    between atoms: _419  and  _421
REMARK  170  A    between atoms: _421  and  _422
REMARK  171  A    between atoms: _421  and  _424
REMARK  172  A    between atoms: _424  and  _425
REMARK  173  A    between atoms: _428  and  _430
REMARK  174  A    between atoms: _430  and  _431
REMARK  175  A    between atoms: _430  and  _433
REMARK  176  A    between atoms: _433  and  _434
REMARK  177  A    between atoms: _434  and  _435
REMARK  178  A    between atoms: _435  and  _436
REMARK  179  A    between atoms: _436  and  _437
REMARK  180  A    between atoms: _441  and  _443
REMARK  181  A    between atoms: _443  and  _444
REMARK  182  A    between atoms: _443  and  _446
REMARK  183  A    between atoms: _449  and  _451
REMARK  184  A    between atoms: _451  and  _452
REMARK  185  A    between atoms: _455  and  _457
REMARK  186  A    between atoms: _457  and  _458
REMARK  187  A    between atoms: _457  and  _460
REMARK  188  A    between atoms: _460  and  _461
REMARK  189  A    between atoms: _464  and  _466
REMARK  190  A    between atoms: _466  and  _467
REMARK  191  A    between atoms: _466  and  _469
REMARK  192  A    between atoms: _469  and  _470
REMARK  193  A    between atoms: _476  and  _478
REMARK  194  A    between atoms: _478  and  _479
REMARK  195  A    between atoms: _478  and  _481
REMARK  196  A    between atoms: _481  and  _482
REMARK  197  A    between atoms: _485  and  _487
REMARK  198  A    between atoms: _487  and  _488
REMARK  199  A    between atoms: _491  and  _493
REMARK  200  A    between atoms: _493  and  _494
REMARK  201  A    between atoms: _493  and  _496
REMARK  202  A    between atoms: _496  and  _497
REMARK  203  A    between atoms: _497  and  _498
REMARK  204  A    between atoms: _498  and  _499
REMARK  205  A    between atoms: _508  and  _510
REMARK  206  A    between atoms: _510  and  _511
REMARK  207  A    between atoms: _510  and  _513
REMARK  208  A    between atoms: _513  and  _514
REMARK  209  A    between atoms: _517  and  _519
REMARK  210  A    between atoms: _519  and  _520
REMARK  211  A    between atoms: _519  and  _522
REMARK  212  A    between atoms: _522  and  _523
REMARK  213  A    between atoms: _523  and  _524
REMARK  214  A    between atoms: _526  and  _528
REMARK  215  A    between atoms: _528  and  _529
REMARK  216  A    between atoms: _528  and  _531
REMARK  217  A    between atoms: _531  and  _532
REMARK  218  A    between atoms: _537  and  _538
REMARK  219  A    between atoms: _540  and  _542
REMARK  220  A    between atoms: _542  and  _543
REMARK  221  A    between atoms: _542  and  _545
REMARK  222  A    between atoms: _545  and  _546
REMARK  223  A    between atoms: _549  and  _551
REMARK  224  A    between atoms: _551  and  _552
REMARK  225  A    between atoms: _551  and  _554
REMARK  226  A    between atoms: _554  and  _555
REMARK  227  A    between atoms: _560  and  _561
REMARK  228  A    between atoms: _563  and  _565
REMARK  229  A    between atoms: _565  and  _566
REMARK  230  A    between atoms: _565  and  _568
REMARK  231  A    between atoms: _568  and  _569
REMARK  232  A    between atoms: _569  and  _570
REMARK  233  A    between atoms: _570  and  _571
REMARK  234  A    between atoms: _571  and  _572
REMARK                            x       y       z     vdW  Elec       q    Type
REMARK                         _______ _______ _______ _____ _____    ______ ____
ROOT
ATOM      1  O   HOH     1      -8.720 -24.928  11.818  0.00  0.00    +0.000 OA
ENDROOT
TORSDOF 0
REMARK  Name = ../refined-set-2016/4gg7/4gg7_pocket.pdb
REMARK  234 active torsions:
REMARK  status: ('A' for Active; 'I' for Inactive)
REMARK    1  A    between atoms: _1  and  _3
REMARK    2  A    between atoms: _3  and  _4
REMARK    3  A    between atoms: _3  and  _6
REMARK    4  A    between atoms: _9  and  _11
REMARK    5  A    between atoms: _11  and  _12
REMARK    6  A    between atoms: _11  and  _14
REMARK    7  A    between atoms: _14  and  _15
REMARK    8  A    between atoms: _18  and  _20
REMARK    9  A    between atoms: _20  and  _21
REMARK   10  A    between atoms: _23  and  _25
REMARK   11  A    between atoms: _25  and  _26
REMARK   12  A    between atoms: _25  and  _28
REMARK   13  A    between atoms: _28  and  _29
REMARK   14  A    between atoms: _29  and  _30
REMARK   15  A    between atoms: _30  and  _31
REMARK   16  A    between atoms: _40  and  _42
REMARK   17  A    between atoms: _42  and  _43
REMARK   18  A    between atoms: _45  and  _47
REMARK   19  A    between atoms: _47  and  _48
REMARK   20  A    between atoms: _50  and  _52
REMARK   21  A    between atoms: _52  and  _53
REMARK   22  A    between atoms: _52  and  _55
REMARK   23  A    between atoms: _57  and  _59
REMARK   24  A    between atoms: _59  and  _60
REMARK   25  A    between atoms: _59  and  _62
REMARK   26  A    between atoms: _65  and  _67
REMARK   27  A    between atoms: _67  and  _68
REMARK   28  A    between atoms: _67  and  _70
REMARK   29  A    between atoms: _70  and  _71
REMARK   30  A    between atoms: _76  and  _77
REMARK   31  A    between atoms: _79  and  _81
REMARK   32  A    between atoms: _81  and  _82
REMARK   33  A    between atoms: _81  and  _84
REMARK   34  A    between atoms: _84  and  _85
REMARK   35  A    between atoms: _90  and  _92
REMARK   36  A    between atoms: _92  and  _93
REMARK   37  A    between atoms: _92  and  _95
REMARK   38  A    between atoms: _95  and  _96
REMARK   39  A    between atoms: _101  and  _103
REMARK   40  A    between atoms: _103  and  _104
REMARK   41  A    between atoms: _103  and  _106
REMARK   42  A    between atoms: _108  and  _110
REMARK   43  A    between atoms: _110  and  _111
REMARK   44  A    between atoms: _114  and  _116
REMARK   45  A    between atoms: _116  and  _117
REMARK   46  A    between atoms: _116  and  _119
REMARK   47  A    between atoms: _122  and  _124
REMARK   48  A    between atoms: _124  and  _125
REMARK   49  A    between atoms: _124  and  _127
REMARK   50  A    between atoms: _127  and  _128
REMARK   51  A    between atoms: _128  and  _129
REMARK   52  A    between atoms: _129  and  _130
REMARK   53  A    between atoms: _130  and  _131
REMARK   54  A    between atoms: _135  and  _137
REMARK   55  A    between atoms: _137  and  _138
REMARK   56  A    between atoms: _137  and  _140
REMARK   57  A    between atoms: _140  and  _141
REMARK   58  A    between atoms: _141  and  _142
REMARK   59  A    between atoms: _144  and  _146
REMARK   60  A    between atoms: _146  and  _147
REMARK   61  A    between atoms: _146  and  _149
REMARK   62  A    between atoms: _149  and  _150
REMARK   63  A    between atoms: _153  and  _155
REMARK   64  A    between atoms: _155  and  _156
REMARK   65  A    between atoms: _155  and  _158
REMARK   66  A    between atoms: _158  and  _159
REMARK   67  A    between atoms: _161  and  _163
REMARK   68  A    between atoms: _163  and  _164
REMARK   69  A    between atoms: _163  and  _166
REMARK   70  A    between atoms: _166  and  _167
REMARK   71  A    between atoms: _170  and  _172
REMARK   72  A    between atoms: _172  and  _173
REMARK   73  A    between atoms: _172  and  _175
REMARK   74  A    between atoms: _178  and  _180
REMARK   75  A    between atoms: _180  and  _181
REMARK   76  A    between atoms: _180  and  _183
REMARK   77  A    between atoms: _186  and  _188
REMARK   78  A    between atoms: _188  and  _189
REMARK   79  A    between atoms: _188  and  _191
REMARK   80  A    between atoms: _191  and  _192
REMARK   81  A    between atoms: _196  and  _197
REMARK   82  A    between atoms: _202  and  _204
REMARK   83  A    between atoms: _204  and  _205
REMARK   84  A    between atoms: _204  and  _207
REMARK   85  A    between atoms: _207  and  _208
REMARK   86  A    between atoms: _213  and  _214
REMARK   87  A    between atoms: _216  and  _218
REMARK   88  A    between atoms: _218  and  _219
REMARK   89  A    between atoms: _218  and  _221
REMARK   90  A    between atoms: _221  and  _222
REMARK   91  A    between atoms: _222  and  _223
REMARK   92  A    between atoms: _225  and  _227
REMARK   93  A    between atoms: _227  and  _228
REMARK   94  A    between atoms: _227  and  _230
REMARK   95  A    between atoms: _230  and  _231
REMARK   96  A    between atoms: _231  and  _232
REMARK   97  A    between atoms: _232  and  _233
REMARK   98  A    between atoms: _233  and  _234
REMARK   99  A    between atoms: _238  and  _240
REMARK  100  A    between atoms: _240  and  _241
REMARK  101  A    between atoms: _240  and  _243
REMARK  102  A    between atoms: _243  and  _244
REMARK  103  A    between atoms: _249  and  _251
REMARK  104  A    between atoms: _251  and  _252
REMARK  105  A    between atoms: _254  and  _256
REMARK  106  A    between atoms: _256  and  _257
REMARK  107  A    between atoms: _256  and  _259
REMARK  108  A    between atoms: _259  and  _260
REMARK  109  A    between atoms: _263  and  _265
REMARK  110  A    between atoms: _265  and  _266
REMARK  111  A    between atoms: _265  and  _268
REMARK  112  A    between atoms: _268  and  _269
REMARK  113  A    between atoms: _272  and  _274
REMARK  114  A    between atoms: _274  and  _275
REMARK  115  A    between atoms: _274  and  _277
REMARK  116  A    between atoms: _277  and  _278
REMARK  117  A    between atoms: _278  and  _279
REMARK  118  A    between atoms: _279  and  _280
REMARK  119  A    between atoms: _289  and  _291
REMARK  120  A    between atoms: _291  and  _292
REMARK  121  A    between atoms: _291  and  _294
REMARK  122  A    between atoms: _294  and  _295
REMARK  123  A    between atoms: _300  and  _302
REMARK  124  A    between atoms: _302  and  _303
REMARK  125  A    between atoms: _302  and  _305
REMARK  126  A    between atoms: _305  and  _306
REMARK  127  A    between atoms: _312  and  _314
REMARK  128  A    between atoms: _314  and  _315
REMARK  129  A    between atoms: _314  and  _317
REMARK  130  A    between atoms: _317  and  _318
REMARK  131  A    between atoms: _323  and  _325
REMARK  132  A    between atoms: _325  and  _326
REMARK  133  A    between atoms: _325  and  _328
REMARK  134  A    between atoms: _328  and  _329
REMARK  135  A    between atoms: _334  and  _336
REMARK  136  A    between atoms: _336  and  _337
REMARK  137  A    between atoms: _336  and  _339
REMARK  138  A    between atoms: _339  and  _340
REMARK  139  A    between atoms: _345  and  _347
REMARK  140  A    between atoms: _347  and  _348
REMARK  141  A    between atoms: _347  and  _350
REMARK  142  A    between atoms: _350  and  _351
REMARK  143  A    between atoms: _354  and  _356
REMARK  144  A    between atoms: _356  and  _357
REMARK  145  A    between atoms: _360  and  _362
REMARK  146  A    between atoms: _362  and  _363
REMARK  147  A    between atoms: _366  and  _368
REMARK  148  A    between atoms: _368  and  _369
REMARK  149  A    between atoms: _368  and  _371
REMARK  150  A    between atoms: _371  and  _372
REMARK  151  A    between atoms: _372  and  _373
REMARK  152  A    between atoms: _373  and  _374
REMARK  153  A    between atoms: _383  and  _385
REMARK  154  A    between atoms: _385  and  _386
REMARK  155  A    between atoms: _385  and  _388
REMARK  156  A    between atoms: _388  and  _389
REMARK  157  A    between atoms: _394  and  _396
REMARK  158  A    between atoms: _396  and  _397
REMARK  159  A    between atoms: _396  and  _399
REMARK  160  A    between atoms: _401  and  _403
REMARK  161  A    between atoms: _403  and  _404
REMARK  162  A    between atoms: _403  and  _406
REMARK  163  A    between atoms: _406  and  _407
REMARK  164  A    between atoms: _407  and  _408
REMARK  165  A    between atoms: _410  and  _412
REMARK  166  A    between atoms: _412  and  _413
REMARK  167  A    between atoms: _412  and  _415
REMARK  168  A    between atoms: _415  and  _416
REMARK  169  A    between atoms: _419  and  _421
REMARK  170  A    between atoms: _421  and  _422
REMARK  171  A    between atoms: _421  and  _424
REMARK  172  A    between atoms: _424  and  _425
REMARK  173  A    between atoms: _428  and  _430
REMARK  174  A    between atoms: _430  and  _431
REMARK  175  A    between atoms: _430  and  _433
REMARK  176  A    between atoms: _433  and  _434
REMARK  177  A    between atoms: _434  and  _435
REMARK  178  A    between atoms: _435  and  _436
REMARK  179  A    between atoms: _436  and  _437
REMARK  180  A    between atoms: _441  and  _443
REMARK  181  A    between atoms: _443  and  _444
REMARK  182  A    between atoms: _443  and  _446
REMARK  183  A    between atoms: _449  and  _451
REMARK  184  A    between atoms: _451  and  _452
REMARK  185  A    between atoms: _455  and  _457
REMARK  186  A    between atoms: _457  and  _458
REMARK  187  A    between atoms: _457  and  _460
REMARK  188  A    between atoms: _460  and  _461
REMARK  189  A    between atoms: _464  and  _466
REMARK  190  A    between atoms: _466  and  _467
REMARK  191  A    between atoms: _466  and  _469
REMARK  192  A    between atoms: _469  and  _470
REMARK  193  A    between atoms: _476  and  _478
REMARK  194  A    between atoms: _478  and  _479
REMARK  195  A    between atoms: _478  and  _481
REMARK  196  A    between atoms: _481  and  _482
REMARK  197  A    between atoms: _485  and  _487
REMARK  198  A    between atoms: _487  and  _488
REMARK  199  A    between atoms: _491  and  _493
REMARK  200  A    between atoms: _493  and  _494
REMARK  201  A    between atoms: _493  and  _496
REMARK  202  A    between atoms: _496  and  _497
REMARK  203  A    between atoms: _497  and  _498
REMARK  204  A    between atoms: _498  and  _499
REMARK  205  A    between atoms: _508  and  _510
REMARK  206  A    between atoms: _510  and  _511
REMARK  207  A    between atoms: _510  and  _513
REMARK  208  A    between atoms: _513  and  _514
REMARK  209  A    between atoms: _517  and  _519
REMARK  210  A    between atoms: _519  and  _520
REMARK  211  A    between atoms: _519  and  _522
REMARK  212  A    between atoms: _522  and  _523
REMARK  213  A    between atoms: _523  and  _524
REMARK  214  A    between atoms: _526  and  _528
REMARK  215  A    between atoms: _528  and  _529
REMARK  216  A    between atoms: _528  and  _531
REMARK  217  A    between atoms: _531  and  _532
REMARK  218  A    between atoms: _537  and  _538
REMARK  219  A    between atoms: _540  and  _542
REMARK  220  A    between atoms: _542  and  _543
REMARK  221  A    between atoms: _542  and  _545
REMARK  222  A    between atoms: _545  and  _546
REMARK  223  A    between atoms: _549  and  _551
REMARK  224  A    between atoms: _551  and  _552
REMARK  225  A    between atoms: _551  and  _554
REMARK  226  A    between atoms: _554  and  _555
REMARK  227  A    between atoms: _560  and  _561
REMARK  228  A    between atoms: _563  and  _565
REMARK  229  A    between atoms: _565  and  _566
REMARK  230  A    between atoms: _565  and  _568
REMARK  231  A    between atoms: _568  and  _569
REMARK  232  A    between atoms: _569  and  _570
REMARK  233  A    between atoms: _570  and  _571
REMARK  234  A    between atoms: _571  and  _572
REMARK                            x       y       z     vdW  Elec       q    Type
REMARK                         _______ _______ _______ _____ _____    ______ ____
ROOT
ATOM      1  O   HOH     1      -5.232 -10.019  22.771  0.00  0.00    +0.000 OA
ENDROOT
TORSDOF 0
REMARK  Name = ../refined-set-2016/4gg7/4gg7_pocket.pdb
REMARK  234 active torsions:
REMARK  status: ('A' for Active; 'I' for Inactive)
REMARK    1  A    between atoms: _1  and  _3
REMARK    2  A    between atoms: _3  and  _4
REMARK    3  A    between atoms: _3  and  _6
REMARK    4  A    between atoms: _9  and  _11
REMARK    5  A    between atoms: _11  and  _12
REMARK    6  A    between atoms: _11  and  _14
REMARK    7  A    between atoms: _14  and  _15
REMARK    8  A    between atoms: _18  and  _20
REMARK    9  A    between atoms: _20  and  _21
REMARK   10  A    between atoms: _23  and  _25
REMARK   11  A    between atoms: _25  and  _26
REMARK   12  A    between atoms: _25  and  _28
REMARK   13  A    between atoms: _28  and  _29
REMARK   14  A    between atoms: _29  and  _30
REMARK   15  A    between atoms: _30  and  _31
REMARK   16  A    between atoms: _40  and  _42
REMARK   17  A    between atoms: _42  and  _43
REMARK   18  A    between atoms: _45  and  _47
REMARK   19  A    between atoms: _47  and  _48
REMARK   20  A    between atoms: _50  and  _52
REMARK   21  A    between atoms: _52  and  _53
REMARK   22  A    between atoms: _52  and  _55
REMARK   23  A    between atoms: _57  and  _59
REMARK   24  A    between atoms: _59  and  _60
REMARK   25  A    between atoms: _59  and  _62
REMARK   26  A    between atoms: _65  and  _67
REMARK   27  A    between atoms: _67  and  _68
REMARK   28  A    between atoms: _67  and  _70
REMARK   29  A    between atoms: _70  and  _71
REMARK   30  A    between atoms: _76  and  _77
REMARK   31  A    between atoms: _79  and  _81
REMARK   32  A    between atoms: _81  and  _82
REMARK   33  A    between atoms: _81  and  _84
REMARK   34  A    between atoms: _84  and  _85
REMARK   35  A    between atoms: _90  and  _92
REMARK   36  A    between atoms: _92  and  _93
REMARK   37  A    between atoms: _92  and  _95
REMARK   38  A    between atoms: _95  and  _96
REMARK   39  A    between atoms: _101  and  _103
REMARK   40  A    between atoms: _103  and  _104
REMARK   41  A    between atoms: _103  and  _106
REMARK   42  A    between atoms: _108  and  _110
REMARK   43  A    between atoms: _110  and  _111
REMARK   44  A    between atoms: _114  and  _116
REMARK   45  A    between atoms: _116  and  _117
REMARK   46  A    between atoms: _116  and  _119
REMARK   47  A    between atoms: _122  and  _124
REMARK   48  A    between atoms: _124  and  _125
REMARK   49  A    between atoms: _124  and  _127
REMARK   50  A    between atoms: _127  and  _128
REMARK   51  A    between atoms: _128  and  _129
REMARK   52  A    between atoms: _129  and  _130
REMARK   53  A    between atoms: _130  and  _131
REMARK   54  A    between atoms: _135  and  _137
REMARK   55  A    between atoms: _137  and  _138
REMARK   56  A    between atoms: _137  and  _140
REMARK   57  A    between atoms: _140  and  _141
REMARK   58  A    between atoms: _141  and  _142
REMARK   59  A    between atoms: _144  and  _146
REMARK   60  A    between atoms: _146  and  _147
REMARK   61  A    between atoms: _146  and  _149
REMARK   62  A    between atoms: _149  and  _150
REMARK   63  A    between atoms: _153  and  _155
REMARK   64  A    between atoms: _155  and  _156
REMARK   65  A    between atoms: _155  and  _158
REMARK   66  A    between atoms: _158  and  _159
REMARK   67  A    between atoms: _161  and  _163
REMARK   68  A    between atoms: _163  and  _164
REMARK   69  A    between atoms: _163  and  _166
REMARK   70  A    between atoms: _166  and  _167
REMARK   71  A    between atoms: _170  and  _172
REMARK   72  A    between atoms: _172  and  _173
REMARK   73  A    between atoms: _172  and  _175
REMARK   74  A    between atoms: _178  and  _180
REMARK   75  A    between atoms: _180  and  _181
REMARK   76  A    between atoms: _180  and  _183
REMARK   77  A    between atoms: _186  and  _188
REMARK   78  A    between atoms: _188  and  _189
REMARK   79  A    between atoms: _188  and  _191
REMARK   80  A    between atoms: _191  and  _192
REMARK   81  A    between atoms: _196  and  _197
REMARK   82  A    between atoms: _202  and  _204
REMARK   83  A    between atoms: _204  and  _205
REMARK   84  A    between atoms: _204  and  _207
REMARK   85  A    between atoms: _207  and  _208
REMARK   86  A    between atoms: _213  and  _214
REMARK   87  A    between atoms: _216  and  _218
REMARK   88  A    between atoms: _218  and  _219
REMARK   89  A    between atoms: _218  and  _221
REMARK   90  A    between atoms: _221  and  _222
REMARK   91  A    between atoms: _222  and  _223
REMARK   92  A    between atoms: _225  and  _227
REMARK   93  A    between atoms: _227  and  _228
REMARK   94  A    between atoms: _227  and  _230
REMARK   95  A    between atoms: _230  and  _231
REMARK   96  A    between atoms: _231  and  _232
REMARK   97  A    between atoms: _232  and  _233
REMARK   98  A    between atoms: _233  and  _234
REMARK   99  A    between atoms: _238  and  _240
REMARK  100  A    between atoms: _240  and  _241
REMARK  101  A    between atoms: _240  and  _243
REMARK  102  A    between atoms: _243  and  _244
REMARK  103  A    between atoms: _249  and  _251
REMARK  104  A    between atoms: _251  and  _252
REMARK  105  A    between atoms: _254  and  _256
REMARK  106  A    between atoms: _256  and  _257
REMARK  107  A    between atoms: _256  and  _259
REMARK  108  A    between atoms: _259  and  _260
REMARK  109  A    between atoms: _263  and  _265
REMARK  110  A    between atoms: _265  and  _266
REMARK  111  A    between atoms: _265  and  _268
REMARK  112  A    between atoms: _268  and  _269
REMARK  113  A    between atoms: _272  and  _274
REMARK  114  A    between atoms: _274  and  _275
REMARK  115  A    between atoms: _274  and  _277
REMARK  116  A    between atoms: _277  and  _278
REMARK  117  A    between atoms: _278  and  _279
REMARK  118  A    between atoms: _279  and  _280
REMARK  119  A    between atoms: _289  and  _291
REMARK  120  A    between atoms: _291  and  _292
REMARK  121  A    between atoms: _291  and  _294
REMARK  122  A    between atoms: _294  and  _295
REMARK  123  A    between atoms: _300  and  _302
REMARK  124  A    between atoms: _302  and  _303
REMARK  125  A    between atoms: _302  and  _305
REMARK  126  A    between atoms: _305  and  _306
REMARK  127  A    between atoms: _312  and  _314
REMARK  128  A    between atoms: _314  and  _315
REMARK  129  A    between atoms: _314  and  _317
REMARK  130  A    between atoms: _317  and  _318
REMARK  131  A    between atoms: _323  and  _325
REMARK  132  A    between atoms: _325  and  _326
REMARK  133  A    between atoms: _325  and  _328
REMARK  134  A    between atoms: _328  and  _329
REMARK  135  A    between atoms: _334  and  _336
REMARK  136  A    between atoms: _336  and  _337
REMARK  137  A    between atoms: _336  and  _339
REMARK  138  A    between atoms: _339  and  _340
REMARK  139  A    between atoms: _345  and  _347
REMARK  140  A    between atoms: _347  and  _348
REMARK  141  A    between atoms: _347  and  _350
REMARK  142  A    between atoms: _350  and  _351
REMARK  143  A    between atoms: _354  and  _356
REMARK  144  A    between atoms: _356  and  _357
REMARK  145  A    between atoms: _360  and  _362
REMARK  146  A    between atoms: _362  and  _363
REMARK  147  A    between atoms: _366  and  _368
REMARK  148  A    between atoms: _368  and  _369
REMARK  149  A    between atoms: _368  and  _371
REMARK  150  A    between atoms: _371  and  _372
REMARK  151  A    between atoms: _372  and  _373
REMARK  152  A    between atoms: _373  and  _374
REMARK  153  A    between atoms: _383  and  _385
REMARK  154  A    between atoms: _385  and  _386
REMARK  155  A    between atoms: _385  and  _388
REMARK  156  A    between atoms: _388  and  _389
REMARK  157  A    between atoms: _394  and  _396
REMARK  158  A    between atoms: _396  and  _397
REMARK  159  A    between atoms: _396  and  _399
REMARK  160  A    between atoms: _401  and  _403
REMARK  161  A    between atoms: _403  and  _404
REMARK  162  A    between atoms: _403  and  _406
REMARK  163  A    between atoms: _406  and  _407
REMARK  164  A    between atoms: _407  and  _408
REMARK  165  A    between atoms: _410  and  _412
REMARK  166  A    between atoms: _412  and  _413
REMARK  167  A    between atoms: _412  and  _415
REMARK  168  A    between atoms: _415  and  _416
REMARK  169  A    between atoms: _419  and  _421
REMARK  170  A    between atoms: _421  and  _422
REMARK  171  A    between atoms: _421  and  _424
REMARK  172  A    between atoms: _424  and  _425
REMARK  173  A    between atoms: _428  and  _430
REMARK  174  A    between atoms: _430  and  _431
REMARK  175  A    between atoms: _430  and  _433
REMARK  176  A    between atoms: _433  and  _434
REMARK  177  A    between atoms: _434  and  _435
REMARK  178  A    between atoms: _435  and  _436
REMARK  179  A    between atoms: _436  and  _437
REMARK  180  A    between atoms: _441  and  _443
REMARK  181  A    between atoms: _443  and  _444
REMARK  182  A    between atoms: _443  and  _446
REMARK  183  A    between atoms: _449  and  _451
REMARK  184  A    between atoms: _451  and  _452
REMARK  185  A    between atoms: _455  and  _457
REMARK  186  A    between atoms: _457  and  _458
REMARK  187  A    between atoms: _457  and  _460
REMARK  188  A    between atoms: _460  and  _461
REMARK  189  A    between atoms: _464  and  _466
REMARK  190  A    between atoms: _466  and  _467
REMARK  191  A    between atoms: _466  and  _469
REMARK  192  A    between atoms: _469  and  _470
REMARK  193  A    between atoms: _476  and  _478
REMARK  194  A    between atoms: _478  and  _479
REMARK  195  A    between atoms: _478  and  _481
REMARK  196  A    between atoms: _481  and  _482
REMARK  197  A    between atoms: _485  and  _487
REMARK  198  A    between atoms: _487  and  _488
REMARK  199  A    between atoms: _491  and  _493
REMARK  200  A    between atoms: _493  and  _494
REMARK  201  A    between atoms: _493  and  _496
REMARK  202  A    between atoms: _496  and  _497
REMARK  203  A    between atoms: _497  and  _498
REMARK  204  A    between atoms: _498  and  _499
REMARK  205  A    between atoms: _508  and  _510
REMARK  206  A    between atoms: _510  and  _511
REMARK  207  A    between atoms: _510  and  _513
REMARK  208  A    between atoms: _513  and  _514
REMARK  209  A    between atoms: _517  and  _519
REMARK  210  A    between atoms: _519  and  _520
REMARK  211  A    between atoms: _519  and  _522
REMARK  212  A    between atoms: _522  and  _523
REMARK  213  A    between atoms: _523  and  _524
REMARK  214  A    between atoms: _526  and  _528
REMARK  215  A    between atoms: _528  and  _529
REMARK  216  A    between atoms: _528  and  _531
REMARK  217  A    between atoms: _531  and  _532
REMARK  218  A    between atoms: _537  and  _538
REMARK  219  A    between atoms: _540  and  _542
REMARK  220  A    between atoms: _542  and  _543
REMARK  221  A    between atoms: _542  and  _545
REMARK  222  A    between atoms: _545  and  _546
REMARK  223  A    between atoms: _549  and  _551
REMARK  224  A    between atoms: _551  and  _552
REMARK  225  A    between atoms: _551  and  _554
REMARK  226  A    between atoms: _554  and  _555
REMARK  227  A    between atoms: _560  and  _561
REMARK  228  A    between atoms: _563  and  _565
REMARK  229  A    between atoms: _565  and  _566
REMARK  230  A    between atoms: _565  and  _568
REMARK  231  A    between atoms: _568  and  _569
REMARK  232  A    between atoms: _569  and  _570
REMARK  233  A    between atoms: _570  and  _571
REMARK  234  A    between atoms: _571  and  _572
REMARK                            x       y       z     vdW  Elec       q    Type
REMARK                         _______ _______ _______ _____ _____    ______ ____
ROOT
ATOM      1  O   HOH     1       4.284 -22.409  21.756  0.00  0.00    +0.000 OA
ENDROOT
TORSDOF 0
REMARK  Name = ../refined-set-2016/4gg7/4gg7_pocket.pdb
REMARK  234 active torsions:
REMARK  status: ('A' for Active; 'I' for Inactive)
REMARK    1  A    between atoms: _1  and  _3
REMARK    2  A    between atoms: _3  and  _4
REMARK    3  A    between atoms: _3  and  _6
REMARK    4  A    between atoms: _9  and  _11
REMARK    5  A    between atoms: _11  and  _12
REMARK    6  A    between atoms: _11  and  _14
REMARK    7  A    between atoms: _14  and  _15
REMARK    8  A    between atoms: _18  and  _20
REMARK    9  A    between atoms: _20  and  _21
REMARK   10  A    between atoms: _23  and  _25
REMARK   11  A    between atoms: _25  and  _26
REMARK   12  A    between atoms: _25  and  _28
REMARK   13  A    between atoms: _28  and  _29
REMARK   14  A    between atoms: _29  and  _30
REMARK   15  A    between atoms: _30  and  _31
REMARK   16  A    between atoms: _40  and  _42
REMARK   17  A    between atoms: _42  and  _43
REMARK   18  A    between atoms: _45  and  _47
REMARK   19  A    between atoms: _47  and  _48
REMARK   20  A    between atoms: _50  and  _52
REMARK   21  A    between atoms: _52  and  _53
REMARK   22  A    between atoms: _52  and  _55
REMARK   23  A    between atoms: _57  and  _59
REMARK   24  A    between atoms: _59  and  _60
REMARK   25  A    between atoms: _59  and  _62
REMARK   26  A    between atoms: _65  and  _67
REMARK   27  A    between atoms: _67  and  _68
REMARK   28  A    between atoms: _67  and  _70
REMARK   29  A    between atoms: _70  and  _71
REMARK   30  A    between atoms: _76  and  _77
REMARK   31  A    between atoms: _79  and  _81
REMARK   32  A    between atoms: _81  and  _82
REMARK   33  A    between atoms: _81  and  _84
REMARK   34  A    between atoms: _84  and  _85
REMARK   35  A    between atoms: _90  and  _92
REMARK   36  A    between atoms: _92  and  _93
REMARK   37  A    between atoms: _92  and  _95
REMARK   38  A    between atoms: _95  and  _96
REMARK   39  A    between atoms: _101  and  _103
REMARK   40  A    between atoms: _103  and  _104
REMARK   41  A    between atoms: _103  and  _106
REMARK   42  A    between atoms: _108  and  _110
REMARK   43  A    between atoms: _110  and  _111
REMARK   44  A    between atoms: _114  and  _116
REMARK   45  A    between atoms: _116  and  _117
REMARK   46  A    between atoms: _116  and  _119
REMARK   47  A    between atoms: _122  and  _124
REMARK   48  A    between atoms: _124  and  _125
REMARK   49  A    between atoms: _124  and  _127
REMARK   50  A    between atoms: _127  and  _128
REMARK   51  A    between atoms: _128  and  _129
REMARK   52  A    between atoms: _129  and  _130
REMARK   53  A    between atoms: _130  and  _131
REMARK   54  A    between atoms: _135  and  _137
REMARK   55  A    between atoms: _137  and  _138
REMARK   56  A    between atoms: _137  and  _140
REMARK   57  A    between atoms: _140  and  _141
REMARK   58  A    between atoms: _141  and  _142
REMARK   59  A    between atoms: _144  and  _146
REMARK   60  A    between atoms: _146  and  _147
REMARK   61  A    between atoms: _146  and  _149
REMARK   62  A    between atoms: _149  and  _150
REMARK   63  A    between atoms: _153  and  _155
REMARK   64  A    between atoms: _155  and  _156
REMARK   65  A    between atoms: _155  and  _158
REMARK   66  A    between atoms: _158  and  _159
REMARK   67  A    between atoms: _161  and  _163
REMARK   68  A    between atoms: _163  and  _164
REMARK   69  A    between atoms: _163  and  _166
REMARK   70  A    between atoms: _166  and  _167
REMARK   71  A    between atoms: _170  and  _172
REMARK   72  A    between atoms: _172  and  _173
REMARK   73  A    between atoms: _172  and  _175
REMARK   74  A    between atoms: _178  and  _180
REMARK   75  A    between atoms: _180  and  _181
REMARK   76  A    between atoms: _180  and  _183
REMARK   77  A    between atoms: _186  and  _188
REMARK   78  A    between atoms: _188  and  _189
REMARK   79  A    between atoms: _188  and  _191
REMARK   80  A    between atoms: _191  and  _192
REMARK   81  A    between atoms: _196  and  _197
REMARK   82  A    between atoms: _202  and  _204
REMARK   83  A    between atoms: _204  and  _205
REMARK   84  A    between atoms: _204  and  _207
REMARK   85  A    between atoms: _207  and  _208
REMARK   86  A    between atoms: _213  and  _214
REMARK   87  A    between atoms: _216  and  _218
REMARK   88  A    between atoms: _218  and  _219
REMARK   89  A    between atoms: _218  and  _221
REMARK   90  A    between atoms: _221  and  _222
REMARK   91  A    between atoms: _222  and  _223
REMARK   92  A    between atoms: _225  and  _227
REMARK   93  A    between atoms: _227  and  _228
REMARK   94  A    between atoms: _227  and  _230
REMARK   95  A    between atoms: _230  and  _231
REMARK   96  A    between atoms: _231  and  _232
REMARK   97  A    between atoms: _232  and  _233
REMARK   98  A    between atoms: _233  and  _234
REMARK   99  A    between atoms: _238  and  _240
REMARK  100  A    between atoms: _240  and  _241
REMARK  101  A    between atoms: _240  and  _243
REMARK  102  A    between atoms: _243  and  _244
REMARK  103  A    between atoms: _249  and  _251
REMARK  104  A    between atoms: _251  and  _252
REMARK  105  A    between atoms: _254  and  _256
REMARK  106  A    between atoms: _256  and  _257
REMARK  107  A    between atoms: _256  and  _259
REMARK  108  A    between atoms: _259  and  _260
REMARK  109  A    between atoms: _263  and  _265
REMARK  110  A    between atoms: _265  and  _266
REMARK  111  A    between atoms: _265  and  _268
REMARK  112  A    between atoms: _268  and  _269
REMARK  113  A    between atoms: _272  and  _274
REMARK  114  A    between atoms: _274  and  _275
REMARK  115  A    between atoms: _274  and  _277
REMARK  116  A    between atoms: _277  and  _278
REMARK  117  A    between atoms: _278  and  _279
REMARK  118  A    between atoms: _279  and  _280
REMARK  119  A    between atoms: _289  and  _291
REMARK  120  A    between atoms: _291  and  _292
REMARK  121  A    between atoms: _291  and  _294
REMARK  122  A    between atoms: _294  and  _295
REMARK  123  A    between atoms: _300  and  _302
REMARK  124  A    between atoms: _302  and  _303
REMARK  125  A    between atoms: _302  and  _305
REMARK  126  A    between atoms: _305  and  _306
REMARK  127  A    between atoms: _312  and  _314
REMARK  128  A    between atoms: _314  and  _315
REMARK  129  A    between atoms: _314  and  _317
REMARK  130  A    between atoms: _317  and  _318
REMARK  131  A    between atoms: _323  and  _325
REMARK  132  A    between atoms: _325  and  _326
REMARK  133  A    between atoms: _325  and  _328
REMARK  134  A    between atoms: _328  and  _329
REMARK  135  A    between atoms: _334  and  _336
REMARK  136  A    between atoms: _336  and  _337
REMARK  137  A    between atoms: _336  and  _339
REMARK  138  A    between atoms: _339  and  _340
REMARK  139  A    between atoms: _345  and  _347
REMARK  140  A    between atoms: _347  and  _348
REMARK  141  A    between atoms: _347  and  _350
REMARK  142  A    between atoms: _350  and  _351
REMARK  143  A    between atoms: _354  and  _356
REMARK  144  A    between atoms: _356  and  _357
REMARK  145  A    between atoms: _360  and  _362
REMARK  146  A    between atoms: _362  and  _363
REMARK  147  A    between atoms: _366  and  _368
REMARK  148  A    between atoms: _368  and  _369
REMARK  149  A    between atoms: _368  and  _371
REMARK  150  A    between atoms: _371  and  _372
REMARK  151  A    between atoms: _372  and  _373
REMARK  152  A    between atoms: _373  and  _374
REMARK  153  A    between atoms: _383  and  _385
REMARK  154  A    between atoms: _385  and  _386
REMARK  155  A    between atoms: _385  and  _388
REMARK  156  A    between atoms: _388  and  _389
REMARK  157  A    between atoms: _394  and  _396
REMARK  158  A    between atoms: _396  and  _397
REMARK  159  A    between atoms: _396  and  _399
REMARK  160  A    between atoms: _401  and  _403
REMARK  161  A    between atoms: _403  and  _404
REMARK  162  A    between atoms: _403  and  _406
REMARK  163  A    between atoms: _406  and  _407
REMARK  164  A    between atoms: _407  and  _408
REMARK  165  A    between atoms: _410  and  _412
REMARK  166  A    between atoms: _412  and  _413
REMARK  167  A    between atoms: _412  and  _415
REMARK  168  A    between atoms: _415  and  _416
REMARK  169  A    between atoms: _419  and  _421
REMARK  170  A    between atoms: _421  and  _422
REMARK  171  A    between atoms: _421  and  _424
REMARK  172  A    between atoms: _424  and  _425
REMARK  173  A    between atoms: _428  and  _430
REMARK  174  A    between atoms: _430  and  _431
REMARK  175  A    between atoms: _430  and  _433
REMARK  176  A    between atoms: _433  and  _434
REMARK  177  A    between atoms: _434  and  _435
REMARK  178  A    between atoms: _435  and  _436
REMARK  179  A    between atoms: _436  and  _437
REMARK  180  A    between atoms: _441  and  _443
REMARK  181  A    between atoms: _443  and  _444
REMARK  182  A    between atoms: _443  and  _446
REMARK  183  A    between atoms: _449  and  _451
REMARK  184  A    between atoms: _451  and  _452
REMARK  185  A    between atoms: _455  and  _457
REMARK  186  A    between atoms: _457  and  _458
REMARK  187  A    between atoms: _457  and  _460
REMARK  188  A    between atoms: _460  and  _461
REMARK  189  A    between atoms: _464  and  _466
REMARK  190  A    between atoms: _466  and  _467
REMARK  191  A    between atoms: _466  and  _469
REMARK  192  A    between atoms: _469  and  _470
REMARK  193  A    between atoms: _476  and  _478
REMARK  194  A    between atoms: _478  and  _479
REMARK  195  A    between atoms: _478  and  _481
REMARK  196  A    between atoms: _481  and  _482
REMARK  197  A    between atoms: _485  and  _487
REMARK  198  A    between atoms: _487  and  _488
REMARK  199  A    between atoms: _491  and  _493
REMARK  200  A    between atoms: _493  and  _494
REMARK  201  A    between atoms: _493  and  _496
REMARK  202  A    between atoms: _496  and  _497
REMARK  203  A    between atoms: _497  and  _498
REMARK  204  A    between atoms: _498  and  _499
REMARK  205  A    between atoms: _508  and  _510
REMARK  206  A    between atoms: _510  and  _511
REMARK  207  A    between atoms: _510  and  _513
REMARK  208  A    between atoms: _513  and  _514
REMARK  209  A    between atoms: _517  and  _519
REMARK  210  A    between atoms: _519  and  _520
REMARK  211  A    between atoms: _519  and  _522
REMARK  212  A    between atoms: _522  and  _523
REMARK  213  A    between atoms: _523  and  _524
REMARK  214  A    between atoms: _526  and  _528
REMARK  215  A    between atoms: _528  and  _529
REMARK  216  A    between atoms: _528  and  _531
REMARK  217  A    between atoms: _531  and  _532
REMARK  218  A    between atoms: _537  and  _538
REMARK  219  A    between atoms: _540  and  _542
REMARK  220  A    between atoms: _542  and  _543
REMARK  221  A    between atoms: _542  and  _545
REMARK  222  A    between atoms: _545  and  _546
REMARK  223  A    between atoms: _549  and  _551
REMARK  224  A    between atoms: _551  and  _552
REMARK  225  A    between atoms: _551  and  _554
REMARK  226  A    between atoms: _554  and  _555
REMARK  227  A    between atoms: _560  and  _561
REMARK  228  A    between atoms: _563  and  _565
REMARK  229  A    between atoms: _565  and  _566
REMARK  230  A    between atoms: _565  and  _568
REMARK  231  A    between atoms: _568  and  _569
REMARK  232  A    between atoms: _569  and  _570
REMARK  233  A    between atoms: _570  and  _571
REMARK  234  A    between atoms: _571  and  _572
REMARK                            x       y       z     vdW  Elec       q    Type
REMARK                         _______ _______ _______ _____ _____    ______ ____
ROOT
ATOM      1  O   HOH     1     -11.866 -13.230  15.511  0.00  0.00    +0.000 OA
ENDROOT
TORSDOF 0
REMARK  Name = ../refined-set-2016/4gg7/4gg7_pocket.pdb
REMARK  234 active torsions:
REMARK  status: ('A' for Active; 'I' for Inactive)
REMARK    1  A    between atoms: _1  and  _3
REMARK    2  A    between atoms: _3  and  _4
REMARK    3  A    between atoms: _3  and  _6
REMARK    4  A    between atoms: _9  and  _11
REMARK    5  A    between atoms: _11  and  _12
REMARK    6  A    between atoms: _11  and  _14
REMARK    7  A    between atoms: _14  and  _15
REMARK    8  A    between atoms: _18  and  _20
REMARK    9  A    between atoms: _20  and  _21
REMARK   10  A    between atoms: _23  and  _25
REMARK   11  A    between atoms: _25  and  _26
REMARK   12  A    between atoms: _25  and  _28
REMARK   13  A    between atoms: _28  and  _29
REMARK   14  A    between atoms: _29  and  _30
REMARK   15  A    between atoms: _30  and  _31
REMARK   16  A    between atoms: _40  and  _42
REMARK   17  A    between atoms: _42  and  _43
REMARK   18  A    between atoms: _45  and  _47
REMARK   19  A    between atoms: _47  and  _48
REMARK   20  A    between atoms: _50  and  _52
REMARK   21  A    between atoms: _52  and  _53
REMARK   22  A    between atoms: _52  and  _55
REMARK   23  A    between atoms: _57  and  _59
REMARK   24  A    between atoms: _59  and  _60
REMARK   25  A    between atoms: _59  and  _62
REMARK   26  A    between atoms: _65  and  _67
REMARK   27  A    between atoms: _67  and  _68
REMARK   28  A    between atoms: _67  and  _70
REMARK   29  A    between atoms: _70  and  _71
REMARK   30  A    between atoms: _76  and  _77
REMARK   31  A    between atoms: _79  and  _81
REMARK   32  A    between atoms: _81  and  _82
REMARK   33  A    between atoms: _81  and  _84
REMARK   34  A    between atoms: _84  and  _85
REMARK   35  A    between atoms: _90  and  _92
REMARK   36  A    between atoms: _92  and  _93
REMARK   37  A    between atoms: _92  and  _95
REMARK   38  A    between atoms: _95  and  _96
REMARK   39  A    between atoms: _101  and  _103
REMARK   40  A    between atoms: _103  and  _104
REMARK   41  A    between atoms: _103  and  _106
REMARK   42  A    between atoms: _108  and  _110
REMARK   43  A    between atoms: _110  and  _111
REMARK   44  A    between atoms: _114  and  _116
REMARK   45  A    between atoms: _116  and  _117
REMARK   46  A    between atoms: _116  and  _119
REMARK   47  A    between atoms: _122  and  _124
REMARK   48  A    between atoms: _124  and  _125
REMARK   49  A    between atoms: _124  and  _127
REMARK   50  A    between atoms: _127  and  _128
REMARK   51  A    between atoms: _128  and  _129
REMARK   52  A    between atoms: _129  and  _130
REMARK   53  A    between atoms: _130  and  _131
REMARK   54  A    between atoms: _135  and  _137
REMARK   55  A    between atoms: _137  and  _138
REMARK   56  A    between atoms: _137  and  _140
REMARK   57  A    between atoms: _140  and  _141
REMARK   58  A    between atoms: _141  and  _142
REMARK   59  A    between atoms: _144  and  _146
REMARK   60  A    between atoms: _146  and  _147
REMARK   61  A    between atoms: _146  and  _149
REMARK   62  A    between atoms: _149  and  _150
REMARK   63  A    between atoms: _153  and  _155
REMARK   64  A    between atoms: _155  and  _156
REMARK   65  A    between atoms: _155  and  _158
REMARK   66  A    between atoms: _158  and  _159
REMARK   67  A    between atoms: _161  and  _163
REMARK   68  A    between atoms: _163  and  _164
REMARK   69  A    between atoms: _163  and  _166
REMARK   70  A    between atoms: _166  and  _167
REMARK   71  A    between atoms: _170  and  _172
REMARK   72  A    between atoms: _172  and  _173
REMARK   73  A    between atoms: _172  and  _175
REMARK   74  A    between atoms: _178  and  _180
REMARK   75  A    between atoms: _180  and  _181
REMARK   76  A    between atoms: _180  and  _183
REMARK   77  A    between atoms: _186  and  _188
REMARK   78  A    between atoms: _188  and  _189
REMARK   79  A    between atoms: _188  and  _191
REMARK   80  A    between atoms: _191  and  _192
REMARK   81  A    between atoms: _196  and  _197
REMARK   82  A    between atoms: _202  and  _204
REMARK   83  A    between atoms: _204  and  _205
REMARK   84  A    between atoms: _204  and  _207
REMARK   85  A    between atoms: _207  and  _208
REMARK   86  A    between atoms: _213  and  _214
REMARK   87  A    between atoms: _216  and  _218
REMARK   88  A    between atoms: _218  and  _219
REMARK   89  A    between atoms: _218  and  _221
REMARK   90  A    between atoms: _221  and  _222
REMARK   91  A    between atoms: _222  and  _223
REMARK   92  A    between atoms: _225  and  _227
REMARK   93  A    between atoms: _227  and  _228
REMARK   94  A    between atoms: _227  and  _230
REMARK   95  A    between atoms: _230  and  _231
REMARK   96  A    between atoms: _231  and  _232
REMARK   97  A    between atoms: _232  and  _233
REMARK   98  A    between atoms: _233  and  _234
REMARK   99  A    between atoms: _238  and  _240
REMARK  100  A    between atoms: _240  and  _241
REMARK  101  A    between atoms: _240  and  _243
REMARK  102  A    between atoms: _243  and  _244
REMARK  103  A    between atoms: _249  and  _251
REMARK  104  A    between atoms: _251  and  _252
REMARK  105  A    between atoms: _254  and  _256
REMARK  106  A    between atoms: _256  and  _257
REMARK  107  A    between atoms: _256  and  _259
REMARK  108  A    between atoms: _259  and  _260
REMARK  109  A    between atoms: _263  and  _265
REMARK  110  A    between atoms: _265  and  _266
REMARK  111  A    between atoms: _265  and  _268
REMARK  112  A    between atoms: _268  and  _269
REMARK  113  A    between atoms: _272  and  _274
REMARK  114  A    between atoms: _274  and  _275
REMARK  115  A    between atoms: _274  and  _277
REMARK  116  A    between atoms: _277  and  _278
REMARK  117  A    between atoms: _278  and  _279
REMARK  118  A    between atoms: _279  and  _280
REMARK  119  A    between atoms: _289  and  _291
REMARK  120  A    between atoms: _291  and  _292
REMARK  121  A    between atoms: _291  and  _294
REMARK  122  A    between atoms: _294  and  _295
REMARK  123  A    between atoms: _300  and  _302
REMARK  124  A    between atoms: _302  and  _303
REMARK  125  A    between atoms: _302  and  _305
REMARK  126  A    between atoms: _305  and  _306
REMARK  127  A    between atoms: _312  and  _314
REMARK  128  A    between atoms: _314  and  _315
REMARK  129  A    between atoms: _314  and  _317
REMARK  130  A    between atoms: _317  and  _318
REMARK  131  A    between atoms: _323  and  _325
REMARK  132  A    between atoms: _325  and  _326
REMARK  133  A    between atoms: _325  and  _328
REMARK  134  A    between atoms: _328  and  _329
REMARK  135  A    between atoms: _334  and  _336
REMARK  136  A    between atoms: _336  and  _337
REMARK  137  A    between atoms: _336  and  _339
REMARK  138  A    between atoms: _339  and  _340
REMARK  139  A    between atoms: _345  and  _347
REMARK  140  A    between atoms: _347  and  _348
REMARK  141  A    between atoms: _347  and  _350
REMARK  142  A    between atoms: _350  and  _351
REMARK  143  A    between atoms: _354  and  _356
REMARK  144  A    between atoms: _356  and  _357
REMARK  145  A    between atoms: _360  and  _362
REMARK  146  A    between atoms: _362  and  _363
REMARK  147  A    between atoms: _366  and  _368
REMARK  148  A    between atoms: _368  and  _369
REMARK  149  A    between atoms: _368  and  _371
REMARK  150  A    between atoms: _371  and  _372
REMARK  151  A    between atoms: _372  and  _373
REMARK  152  A    between atoms: _373  and  _374
REMARK  153  A    between atoms: _383  and  _385
REMARK  154  A    between atoms: _385  and  _386
REMARK  155  A    between atoms: _385  and  _388
REMARK  156  A    between atoms: _388  and  _389
REMARK  157  A    between atoms: _394  and  _396
REMARK  158  A    between atoms: _396  and  _397
REMARK  159  A    between atoms: _396  and  _399
REMARK  160  A    between atoms: _401  and  _403
REMARK  161  A    between atoms: _403  and  _404
REMARK  162  A    between atoms: _403  and  _406
REMARK  163  A    between atoms: _406  and  _407
REMARK  164  A    between atoms: _407  and  _408
REMARK  165  A    between atoms: _410  and  _412
REMARK  166  A    between atoms: _412  and  _413
REMARK  167  A    between atoms: _412  and  _415
REMARK  168  A    between atoms: _415  and  _416
REMARK  169  A    between atoms: _419  and  _421
REMARK  170  A    between atoms: _421  and  _422
REMARK  171  A    between atoms: _421  and  _424
REMARK  172  A    between atoms: _424  and  _425
REMARK  173  A    between atoms: _428  and  _430
REMARK  174  A    between atoms: _430  and  _431
REMARK  175  A    between atoms: _430  and  _433
REMARK  176  A    between atoms: _433  and  _434
REMARK  177  A    between atoms: _434  and  _435
REMARK  178  A    between atoms: _435  and  _436
REMARK  179  A    between atoms: _436  and  _437
REMARK  180  A    between atoms: _441  and  _443
REMARK  181  A    between atoms: _443  and  _444
REMARK  182  A    between atoms: _443  and  _446
REMARK  183  A    between atoms: _449  and  _451
REMARK  184  A    between atoms: _451  and  _452
REMARK  185  A    between atoms: _455  and  _457
REMARK  186  A    between atoms: _457  and  _458
REMARK  187  A    between atoms: _457  and  _460
REMARK  188  A    between atoms: _460  and  _461
REMARK  189  A    between atoms: _464  and  _466
REMARK  190  A    between atoms: _466  and  _467
REMARK  191  A    between atoms: _466  and  _469
REMARK  192  A    between atoms: _469  and  _470
REMARK  193  A    between atoms: _476  and  _478
REMARK  194  A    between atoms: _478  and  _479
REMARK  195  A    between atoms: _478  and  _481
REMARK  196  A    between atoms: _481  and  _482
REMARK  197  A    between atoms: _485  and  _487
REMARK  198  A    between atoms: _487  and  _488
REMARK  199  A    between atoms: _491  and  _493
REMARK  200  A    between atoms: _493  and  _494
REMARK  201  A    between atoms: _493  and  _496
REMARK  202  A    between atoms: _496  and  _497
REMARK  203  A    between atoms: _497  and  _498
REMARK  204  A    between atoms: _498  and  _499
REMARK  205  A    between atoms: _508  and  _510
REMARK  206  A    between atoms: _510  and  _511
REMARK  207  A    between atoms: _510  and  _513
REMARK  208  A    between atoms: _513  and  _514
REMARK  209  A    between atoms: _517  and  _519
REMARK  210  A    between atoms: _519  and  _520
REMARK  211  A    between atoms: _519  and  _522
REMARK  212  A    between atoms: _522  and  _523
REMARK  213  A    between atoms: _523  and  _524
REMARK  214  A    between atoms: _526  and  _528
REMARK  215  A    between atoms: _528  and  _529
REMARK  216  A    between atoms: _528  and  _531
REMARK  217  A    between atoms: _531  and  _532
REMARK  218  A    between atoms: _537  and  _538
REMARK  219  A    between atoms: _540  and  _542
REMARK  220  A    between atoms: _542  and  _543
REMARK  221  A    between atoms: _542  and  _545
REMARK  222  A    between atoms: _545  and  _546
REMARK  223  A    between atoms: _549  and  _551
REMARK  224  A    between atoms: _551  and  _552
REMARK  225  A    between atoms: _551  and  _554
REMARK  226  A    between atoms: _554  and  _555
REMARK  227  A    between atoms: _560  and  _561
REMARK  228  A    between atoms: _563  and  _565
REMARK  229  A    between atoms: _565  and  _566
REMARK  230  A    between atoms: _565  and  _568
REMARK  231  A    between atoms: _568  and  _569
REMARK  232  A    between atoms: _569  and  _570
REMARK  233  A    between atoms: _570  and  _571
REMARK  234  A    between atoms: _571  and  _572
REMARK                            x       y       z     vdW  Elec       q    Type
REMARK                         _______ _______ _______ _____ _____    ______ ____
ROOT
ATOM      1  O   HOH     1     -10.033 -13.151  18.089  0.00  0.00    +0.000 OA
ENDROOT
TORSDOF 0
REMARK  Name = ../refined-set-2016/4gg7/4gg7_pocket.pdb
REMARK  234 active torsions:
REMARK  status: ('A' for Active; 'I' for Inactive)
REMARK    1  A    between atoms: _1  and  _3
REMARK    2  A    between atoms: _3  and  _4
REMARK    3  A    between atoms: _3  and  _6
REMARK    4  A    between atoms: _9  and  _11
REMARK    5  A    between atoms: _11  and  _12
REMARK    6  A    between atoms: _11  and  _14
REMARK    7  A    between atoms: _14  and  _15
REMARK    8  A    between atoms: _18  and  _20
REMARK    9  A    between atoms: _20  and  _21
REMARK   10  A    between atoms: _23  and  _25
REMARK   11  A    between atoms: _25  and  _26
REMARK   12  A    between atoms: _25  and  _28
REMARK   13  A    between atoms: _28  and  _29
REMARK   14  A    between atoms: _29  and  _30
REMARK   15  A    between atoms: _30  and  _31
REMARK   16  A    between atoms: _40  and  _42
REMARK   17  A    between atoms: _42  and  _43
REMARK   18  A    between atoms: _45  and  _47
REMARK   19  A    between atoms: _47  and  _48
REMARK   20  A    between atoms: _50  and  _52
REMARK   21  A    between atoms: _52  and  _53
REMARK   22  A    between atoms: _52  and  _55
REMARK   23  A    between atoms: _57  and  _59
REMARK   24  A    between atoms: _59  and  _60
REMARK   25  A    between atoms: _59  and  _62
REMARK   26  A    between atoms: _65  and  _67
REMARK   27  A    between atoms: _67  and  _68
REMARK   28  A    between atoms: _67  and  _70
REMARK   29  A    between atoms: _70  and  _71
REMARK   30  A    between atoms: _76  and  _77
REMARK   31  A    between atoms: _79  and  _81
REMARK   32  A    between atoms: _81  and  _82
REMARK   33  A    between atoms: _81  and  _84
REMARK   34  A    between atoms: _84  and  _85
REMARK   35  A    between atoms: _90  and  _92
REMARK   36  A    between atoms: _92  and  _93
REMARK   37  A    between atoms: _92  and  _95
REMARK   38  A    between atoms: _95  and  _96
REMARK   39  A    between atoms: _101  and  _103
REMARK   40  A    between atoms: _103  and  _104
REMARK   41  A    between atoms: _103  and  _106
REMARK   42  A    between atoms: _108  and  _110
REMARK   43  A    between atoms: _110  and  _111
REMARK   44  A    between atoms: _114  and  _116
REMARK   45  A    between atoms: _116  and  _117
REMARK   46  A    between atoms: _116  and  _119
REMARK   47  A    between atoms: _122  and  _124
REMARK   48  A    between atoms: _124  and  _125
REMARK   49  A    between atoms: _124  and  _127
REMARK   50  A    between atoms: _127  and  _128
REMARK   51  A    between atoms: _128  and  _129
REMARK   52  A    between atoms: _129  and  _130
REMARK   53  A    between atoms: _130  and  _131
REMARK   54  A    between atoms: _135  and  _137
REMARK   55  A    between atoms: _137  and  _138
REMARK   56  A    between atoms: _137  and  _140
REMARK   57  A    between atoms: _140  and  _141
REMARK   58  A    between atoms: _141  and  _142
REMARK   59  A    between atoms: _144  and  _146
REMARK   60  A    between atoms: _146  and  _147
REMARK   61  A    between atoms: _146  and  _149
REMARK   62  A    between atoms: _149  and  _150
REMARK   63  A    between atoms: _153  and  _155
REMARK   64  A    between atoms: _155  and  _156
REMARK   65  A    between atoms: _155  and  _158
REMARK   66  A    between atoms: _158  and  _159
REMARK   67  A    between atoms: _161  and  _163
REMARK   68  A    between atoms: _163  and  _164
REMARK   69  A    between atoms: _163  and  _166
REMARK   70  A    between atoms: _166  and  _167
REMARK   71  A    between atoms: _170  and  _172
REMARK   72  A    between atoms: _172  and  _173
REMARK   73  A    between atoms: _172  and  _175
REMARK   74  A    between atoms: _178  and  _180
REMARK   75  A    between atoms: _180  and  _181
REMARK   76  A    between atoms: _180  and  _183
REMARK   77  A    between atoms: _186  and  _188
REMARK   78  A    between atoms: _188  and  _189
REMARK   79  A    between atoms: _188  and  _191
REMARK   80  A    between atoms: _191  and  _192
REMARK   81  A    between atoms: _196  and  _197
REMARK   82  A    between atoms: _202  and  _204
REMARK   83  A    between atoms: _204  and  _205
REMARK   84  A    between atoms: _204  and  _207
REMARK   85  A    between atoms: _207  and  _208
REMARK   86  A    between atoms: _213  and  _214
REMARK   87  A    between atoms: _216  and  _218
REMARK   88  A    between atoms: _218  and  _219
REMARK   89  A    between atoms: _218  and  _221
REMARK   90  A    between atoms: _221  and  _222
REMARK   91  A    between atoms: _222  and  _223
REMARK   92  A    between atoms: _225  and  _227
REMARK   93  A    between atoms: _227  and  _228
REMARK   94  A    between atoms: _227  and  _230
REMARK   95  A    between atoms: _230  and  _231
REMARK   96  A    between atoms: _231  and  _232
REMARK   97  A    between atoms: _232  and  _233
REMARK   98  A    between atoms: _233  and  _234
REMARK   99  A    between atoms: _238  and  _240
REMARK  100  A    between atoms: _240  and  _241
REMARK  101  A    between atoms: _240  and  _243
REMARK  102  A    between atoms: _243  and  _244
REMARK  103  A    between atoms: _249  and  _251
REMARK  104  A    between atoms: _251  and  _252
REMARK  105  A    between atoms: _254  and  _256
REMARK  106  A    between atoms: _256  and  _257
REMARK  107  A    between atoms: _256  and  _259
REMARK  108  A    between atoms: _259  and  _260
REMARK  109  A    between atoms: _263  and  _265
REMARK  110  A    between atoms: _265  and  _266
REMARK  111  A    between atoms: _265  and  _268
REMARK  112  A    between atoms: _268  and  _269
REMARK  113  A    between atoms: _272  and  _274
REMARK  114  A    between atoms: _274  and  _275
REMARK  115  A    between atoms: _274  and  _277
REMARK  116  A    between atoms: _277  and  _278
REMARK  117  A    between atoms: _278  and  _279
REMARK  118  A    between atoms: _279  and  _280
REMARK  119  A    between atoms: _289  and  _291
REMARK  120  A    between atoms: _291  and  _292
REMARK  121  A    between atoms: _291  and  _294
REMARK  122  A    between atoms: _294  and  _295
REMARK  123  A    between atoms: _300  and  _302
REMARK  124  A    between atoms: _302  and  _303
REMARK  125  A    between atoms: _302  and  _305
REMARK  126  A    between atoms: _305  and  _306
REMARK  127  A    between atoms: _312  and  _314
REMARK  128  A    between atoms: _314  and  _315
REMARK  129  A    between atoms: _314  and  _317
REMARK  130  A    between atoms: _317  and  _318
REMARK  131  A    between atoms: _323  and  _325
REMARK  132  A    between atoms: _325  and  _326
REMARK  133  A    between atoms: _325  and  _328
REMARK  134  A    between atoms: _328  and  _329
REMARK  135  A    between atoms: _334  and  _336
REMARK  136  A    between atoms: _336  and  _337
REMARK  137  A    between atoms: _336  and  _339
REMARK  138  A    between atoms: _339  and  _340
REMARK  139  A    between atoms: _345  and  _347
REMARK  140  A    between atoms: _347  and  _348
REMARK  141  A    between atoms: _347  and  _350
REMARK  142  A    between atoms: _350  and  _351
REMARK  143  A    between atoms: _354  and  _356
REMARK  144  A    between atoms: _356  and  _357
REMARK  145  A    between atoms: _360  and  _362
REMARK  146  A    between atoms: _362  and  _363
REMARK  147  A    between atoms: _366  and  _368
REMARK  148  A    between atoms: _368  and  _369
REMARK  149  A    between atoms: _368  and  _371
REMARK  150  A    between atoms: _371  and  _372
REMARK  151  A    between atoms: _372  and  _373
REMARK  152  A    between atoms: _373  and  _374
REMARK  153  A    between atoms: _383  and  _385
REMARK  154  A    between atoms: _385  and  _386
REMARK  155  A    between atoms: _385  and  _388
REMARK  156  A    between atoms: _388  and  _389
REMARK  157  A    between atoms: _394  and  _396
REMARK  158  A    between atoms: _396  and  _397
REMARK  159  A    between atoms: _396  and  _399
REMARK  160  A    between atoms: _401  and  _403
REMARK  161  A    between atoms: _403  and  _404
REMARK  162  A    between atoms: _403  and  _406
REMARK  163  A    between atoms: _406  and  _407
REMARK  164  A    between atoms: _407  and  _408
REMARK  165  A    between atoms: _410  and  _412
REMARK  166  A    between atoms: _412  and  _413
REMARK  167  A    between atoms: _412  and  _415
REMARK  168  A    between atoms: _415  and  _416
REMARK  169  A    between atoms: _419  and  _421
REMARK  170  A    between atoms: _421  and  _422
REMARK  171  A    between atoms: _421  and  _424
REMARK  172  A    between atoms: _424  and  _425
REMARK  173  A    between atoms: _428  and  _430
REMARK  174  A    between atoms: _430  and  _431
REMARK  175  A    between atoms: _430  and  _433
REMARK  176  A    between atoms: _433  and  _434
REMARK  177  A    between atoms: _434  and  _435
REMARK  178  A    between atoms: _435  and  _436
REMARK  179  A    between atoms: _436  and  _437
REMARK  180  A    between atoms: _441  and  _443
REMARK  181  A    between atoms: _443  and  _444
REMARK  182  A    between atoms: _443  and  _446
REMARK  183  A    between atoms: _449  and  _451
REMARK  184  A    between atoms: _451  and  _452
REMARK  185  A    between atoms: _455  and  _457
REMARK  186  A    between atoms: _457  and  _458
REMARK  187  A    between atoms: _457  and  _460
REMARK  188  A    between atoms: _460  and  _461
REMARK  189  A    between atoms: _464  and  _466
REMARK  190  A    between atoms: _466  and  _467
REMARK  191  A    between atoms: _466  and  _469
REMARK  192  A    between atoms: _469  and  _470
REMARK  193  A    between atoms: _476  and  _478
REMARK  194  A    between atoms: _478  and  _479
REMARK  195  A    between atoms: _478  and  _481
REMARK  196  A    between atoms: _481  and  _482
REMARK  197  A    between atoms: _485  and  _487
REMARK  198  A    between atoms: _487  and  _488
REMARK  199  A    between atoms: _491  and  _493
REMARK  200  A    between atoms: _493  and  _494
REMARK  201  A    between atoms: _493  and  _496
REMARK  202  A    between atoms: _496  and  _497
REMARK  203  A    between atoms: _497  and  _498
REMARK  204  A    between atoms: _498  and  _499
REMARK  205  A    between atoms: _508  and  _510
REMARK  206  A    between atoms: _510  and  _511
REMARK  207  A    between atoms: _510  and  _513
REMARK  208  A    between atoms: _513  and  _514
REMARK  209  A    between atoms: _517  and  _519
REMARK  210  A    between atoms: _519  and  _520
REMARK  211  A    between atoms: _519  and  _522
REMARK  212  A    between atoms: _522  and  _523
REMARK  213  A    between atoms: _523  and  _524
REMARK  214  A    between atoms: _526  and  _528
REMARK  215  A    between atoms: _528  and  _529
REMARK  216  A    between atoms: _528  and  _531
REMARK  217  A    between atoms: _531  and  _532
REMARK  218  A    between atoms: _537  and  _538
REMARK  219  A    between atoms: _540  and  _542
REMARK  220  A    between atoms: _542  and  _543
REMARK  221  A    between atoms: _542  and  _545
REMARK  222  A    between atoms: _545  and  _546
REMARK  223  A    between atoms: _549  and  _551
REMARK  224  A    between atoms: _551  and  _552
REMARK  225  A    between atoms: _551  and  _554
REMARK  226  A    between atoms: _554  and  _555
REMARK  227  A    between atoms: _560  and  _561
REMARK  228  A    between atoms: _563  and  _565
REMARK  229  A    between atoms: _565  and  _566
REMARK  230  A    between atoms: _565  and  _568
REMARK  231  A    between atoms: _568  and  _569
REMARK  232  A    between atoms: _569  and  _570
REMARK  233  A    between atoms: _570  and  _571
REMARK  234  A    between atoms: _571  and  _572
REMARK                            x       y       z     vdW  Elec       q    Type
REMARK                         _______ _______ _______ _____ _____    ______ ____
ROOT
ATOM      1  O   HOH     1      -7.105 -13.135   9.333  0.00  0.00    +0.000 OA
ENDROOT
TORSDOF 0
REMARK  Name = ../refined-set-2016/4gg7/4gg7_pocket.pdb
REMARK  234 active torsions:
REMARK  status: ('A' for Active; 'I' for Inactive)
REMARK    1  A    between atoms: _1  and  _3
REMARK    2  A    between atoms: _3  and  _4
REMARK    3  A    between atoms: _3  and  _6
REMARK    4  A    between atoms: _9  and  _11
REMARK    5  A    between atoms: _11  and  _12
REMARK    6  A    between atoms: _11  and  _14
REMARK    7  A    between atoms: _14  and  _15
REMARK    8  A    between atoms: _18  and  _20
REMARK    9  A    between atoms: _20  and  _21
REMARK   10  A    between atoms: _23  and  _25
REMARK   11  A    between atoms: _25  and  _26
REMARK   12  A    between atoms: _25  and  _28
REMARK   13  A    between atoms: _28  and  _29
REMARK   14  A    between atoms: _29  and  _30
REMARK   15  A    between atoms: _30  and  _31
REMARK   16  A    between atoms: _40  and  _42
REMARK   17  A    between atoms: _42  and  _43
REMARK   18  A    between atoms: _45  and  _47
REMARK   19  A    between atoms: _47  and  _48
REMARK   20  A    between atoms: _50  and  _52
REMARK   21  A    between atoms: _52  and  _53
REMARK   22  A    between atoms: _52  and  _55
REMARK   23  A    between atoms: _57  and  _59
REMARK   24  A    between atoms: _59  and  _60
REMARK   25  A    between atoms: _59  and  _62
REMARK   26  A    between atoms: _65  and  _67
REMARK   27  A    between atoms: _67  and  _68
REMARK   28  A    between atoms: _67  and  _70
REMARK   29  A    between atoms: _70  and  _71
REMARK   30  A    between atoms: _76  and  _77
REMARK   31  A    between atoms: _79  and  _81
REMARK   32  A    between atoms: _81  and  _82
REMARK   33  A    between atoms: _81  and  _84
REMARK   34  A    between atoms: _84  and  _85
REMARK   35  A    between atoms: _90  and  _92
REMARK   36  A    between atoms: _92  and  _93
REMARK   37  A    between atoms: _92  and  _95
REMARK   38  A    between atoms: _95  and  _96
REMARK   39  A    between atoms: _101  and  _103
REMARK   40  A    between atoms: _103  and  _104
REMARK   41  A    between atoms: _103  and  _106
REMARK   42  A    between atoms: _108  and  _110
REMARK   43  A    between atoms: _110  and  _111
REMARK   44  A    between atoms: _114  and  _116
REMARK   45  A    between atoms: _116  and  _117
REMARK   46  A    between atoms: _116  and  _119
REMARK   47  A    between atoms: _122  and  _124
REMARK   48  A    between atoms: _124  and  _125
REMARK   49  A    between atoms: _124  and  _127
REMARK   50  A    between atoms: _127  and  _128
REMARK   51  A    between atoms: _128  and  _129
REMARK   52  A    between atoms: _129  and  _130
REMARK   53  A    between atoms: _130  and  _131
REMARK   54  A    between atoms: _135  and  _137
REMARK   55  A    between atoms: _137  and  _138
REMARK   56  A    between atoms: _137  and  _140
REMARK   57  A    between atoms: _140  and  _141
REMARK   58  A    between atoms: _141  and  _142
REMARK   59  A    between atoms: _144  and  _146
REMARK   60  A    between atoms: _146  and  _147
REMARK   61  A    between atoms: _146  and  _149
REMARK   62  A    between atoms: _149  and  _150
REMARK   63  A    between atoms: _153  and  _155
REMARK   64  A    between atoms: _155  and  _156
REMARK   65  A    between atoms: _155  and  _158
REMARK   66  A    between atoms: _158  and  _159
REMARK   67  A    between atoms: _161  and  _163
REMARK   68  A    between atoms: _163  and  _164
REMARK   69  A    between atoms: _163  and  _166
REMARK   70  A    between atoms: _166  and  _167
REMARK   71  A    between atoms: _170  and  _172
REMARK   72  A    between atoms: _172  and  _173
REMARK   73  A    between atoms: _172  and  _175
REMARK   74  A    between atoms: _178  and  _180
REMARK   75  A    between atoms: _180  and  _181
REMARK   76  A    between atoms: _180  and  _183
REMARK   77  A    between atoms: _186  and  _188
REMARK   78  A    between atoms: _188  and  _189
REMARK   79  A    between atoms: _188  and  _191
REMARK   80  A    between atoms: _191  and  _192
REMARK   81  A    between atoms: _196  and  _197
REMARK   82  A    between atoms: _202  and  _204
REMARK   83  A    between atoms: _204  and  _205
REMARK   84  A    between atoms: _204  and  _207
REMARK   85  A    between atoms: _207  and  _208
REMARK   86  A    between atoms: _213  and  _214
REMARK   87  A    between atoms: _216  and  _218
REMARK   88  A    between atoms: _218  and  _219
REMARK   89  A    between atoms: _218  and  _221
REMARK   90  A    between atoms: _221  and  _222
REMARK   91  A    between atoms: _222  and  _223
REMARK   92  A    between atoms: _225  and  _227
REMARK   93  A    between atoms: _227  and  _228
REMARK   94  A    between atoms: _227  and  _230
REMARK   95  A    between atoms: _230  and  _231
REMARK   96  A    between atoms: _231  and  _232
REMARK   97  A    between atoms: _232  and  _233
REMARK   98  A    between atoms: _233  and  _234
REMARK   99  A    between atoms: _238  and  _240
REMARK  100  A    between atoms: _240  and  _241
REMARK  101  A    between atoms: _240  and  _243
REMARK  102  A    between atoms: _243  and  _244
REMARK  103  A    between atoms: _249  and  _251
REMARK  104  A    between atoms: _251  and  _252
REMARK  105  A    between atoms: _254  and  _256
REMARK  106  A    between atoms: _256  and  _257
REMARK  107  A    between atoms: _256  and  _259
REMARK  108  A    between atoms: _259  and  _260
REMARK  109  A    between atoms: _263  and  _265
REMARK  110  A    between atoms: _265  and  _266
REMARK  111  A    between atoms: _265  and  _268
REMARK  112  A    between atoms: _268  and  _269
REMARK  113  A    between atoms: _272  and  _274
REMARK  114  A    between atoms: _274  and  _275
REMARK  115  A    between atoms: _274  and  _277
REMARK  116  A    between atoms: _277  and  _278
REMARK  117  A    between atoms: _278  and  _279
REMARK  118  A    between atoms: _279  and  _280
REMARK  119  A    between atoms: _289  and  _291
REMARK  120  A    between atoms: _291  and  _292
REMARK  121  A    between atoms: _291  and  _294
REMARK  122  A    between atoms: _294  and  _295
REMARK  123  A    between atoms: _300  and  _302
REMARK  124  A    between atoms: _302  and  _303
REMARK  125  A    between atoms: _302  and  _305
REMARK  126  A    between atoms: _305  and  _306
REMARK  127  A    between atoms: _312  and  _314
REMARK  128  A    between atoms: _314  and  _315
REMARK  129  A    between atoms: _314  and  _317
REMARK  130  A    between atoms: _317  and  _318
REMARK  131  A    between atoms: _323  and  _325
REMARK  132  A    between atoms: _325  and  _326
REMARK  133  A    between atoms: _325  and  _328
REMARK  134  A    between atoms: _328  and  _329
REMARK  135  A    between atoms: _334  and  _336
REMARK  136  A    between atoms: _336  and  _337
REMARK  137  A    between atoms: _336  and  _339
REMARK  138  A    between atoms: _339  and  _340
REMARK  139  A    between atoms: _345  and  _347
REMARK  140  A    between atoms: _347  and  _348
REMARK  141  A    between atoms: _347  and  _350
REMARK  142  A    between atoms: _350  and  _351
REMARK  143  A    between atoms: _354  and  _356
REMARK  144  A    between atoms: _356  and  _357
REMARK  145  A    between atoms: _360  and  _362
REMARK  146  A    between atoms: _362  and  _363
REMARK  147  A    between atoms: _366  and  _368
REMARK  148  A    between atoms: _368  and  _369
REMARK  149  A    between atoms: _368  and  _371
REMARK  150  A    between atoms: _371  and  _372
REMARK  151  A    between atoms: _372  and  _373
REMARK  152  A    between atoms: _373  and  _374
REMARK  153  A    between atoms: _383  and  _385
REMARK  154  A    between atoms: _385  and  _386
REMARK  155  A    between atoms: _385  and  _388
REMARK  156  A    between atoms: _388  and  _389
REMARK  157  A    between atoms: _394  and  _396
REMARK  158  A    between atoms: _396  and  _397
REMARK  159  A    between atoms: _396  and  _399
REMARK  160  A    between atoms: _401  and  _403
REMARK  161  A    between atoms: _403  and  _404
REMARK  162  A    between atoms: _403  and  _406
REMARK  163  A    between atoms: _406  and  _407
REMARK  164  A    between atoms: _407  and  _408
REMARK  165  A    between atoms: _410  and  _412
REMARK  166  A    between atoms: _412  and  _413
REMARK  167  A    between atoms: _412  and  _415
REMARK  168  A    between atoms: _415  and  _416
REMARK  169  A    between atoms: _419  and  _421
REMARK  170  A    between atoms: _421  and  _422
REMARK  171  A    between atoms: _421  and  _424
REMARK  172  A    between atoms: _424  and  _425
REMARK  173  A    between atoms: _428  and  _430
REMARK  174  A    between atoms: _430  and  _431
REMARK  175  A    between atoms: _430  and  _433
REMARK  176  A    between atoms: _433  and  _434
REMARK  177  A    between atoms: _434  and  _435
REMARK  178  A    between atoms: _435  and  _436
REMARK  179  A    between atoms: _436  and  _437
REMARK  180  A    between atoms: _441  and  _443
REMARK  181  A    between atoms: _443  and  _444
REMARK  182  A    between atoms: _443  and  _446
REMARK  183  A    between atoms: _449  and  _451
REMARK  184  A    between atoms: _451  and  _452
REMARK  185  A    between atoms: _455  and  _457
REMARK  186  A    between atoms: _457  and  _458
REMARK  187  A    between atoms: _457  and  _460
REMARK  188  A    between atoms: _460  and  _461
REMARK  189  A    between atoms: _464  and  _466
REMARK  190  A    between atoms: _466  and  _467
REMARK  191  A    between atoms: _466  and  _469
REMARK  192  A    between atoms: _469  and  _470
REMARK  193  A    between atoms: _476  and  _478
REMARK  194  A    between atoms: _478  and  _479
REMARK  195  A    between atoms: _478  and  _481
REMARK  196  A    between atoms: _481  and  _482
REMARK  197  A    between atoms: _485  and  _487
REMARK  198  A    between atoms: _487  and  _488
REMARK  199  A    between atoms: _491  and  _493
REMARK  200  A    between atoms: _493  and  _494
REMARK  201  A    between atoms: _493  and  _496
REMARK  202  A    between atoms: _496  and  _497
REMARK  203  A    between atoms: _497  and  _498
REMARK  204  A    between atoms: _498  and  _499
REMARK  205  A    between atoms: _508  and  _510
REMARK  206  A    between atoms: _510  and  _511
REMARK  207  A    between atoms: _510  and  _513
REMARK  208  A    between atoms: _513  and  _514
REMARK  209  A    between atoms: _517  and  _519
REMARK  210  A    between atoms: _519  and  _520
REMARK  211  A    between atoms: _519  and  _522
REMARK  212  A    between atoms: _522  and  _523
REMARK  213  A    between atoms: _523  and  _524
REMARK  214  A    between atoms: _526  and  _528
REMARK  215  A    between atoms: _528  and  _529
REMARK  216  A    between atoms: _528  and  _531
REMARK  217  A    between atoms: _531  and  _532
REMARK  218  A    between atoms: _537  and  _538
REMARK  219  A    between atoms: _540  and  _542
REMARK  220  A    between atoms: _542  and  _543
REMARK  221  A    between atoms: _542  and  _545
REMARK  222  A    between atoms: _545  and  _546
REMARK  223  A    between atoms: _549  and  _551
REMARK  224  A    between atoms: _551  and  _552
REMARK  225  A    between atoms: _551  and  _554
REMARK  226  A    between atoms: _554  and  _555
REMARK  227  A    between atoms: _560  and  _561
REMARK  228  A    between atoms: _563  and  _565
REMARK  229  A    between atoms: _565  and  _566
REMARK  230  A    between atoms: _565  and  _568
REMARK  231  A    between atoms: _568  and  _569
REMARK  232  A    between atoms: _569  and  _570
REMARK  233  A    between atoms: _570  and  _571
REMARK  234  A    between atoms: _571  and  _572
REMARK                            x       y       z     vdW  Elec       q    Type
REMARK                         _______ _______ _______ _____ _____    ______ ____
ROOT
ATOM      1  O   HOH     1      -7.288 -16.851  14.562  0.00  0.00    +0.000 OA
ENDROOT
TORSDOF 0
