REMARK  Name = ../refined-set-2016/3zyf/3zyf_pocket.pdb
REMARK  93 active torsions:
REMARK  status: ('A' for Active; 'I' for Inactive)
REMARK    1  A    between atoms: _1  and  _3
REMARK    2  A    between atoms: _3  and  _4
REMARK    3  A    between atoms: _3  and  _6
REMARK    4  A    between atoms: _6  and  _7
REMARK    5  A    between atoms: _9  and  _11
REMARK    6  A    between atoms: _11  and  _12
REMARK    7  A    between atoms: _11  and  _14
REMARK    8  A    between atoms: _12  and  _13
REMARK    9  A    between atoms: _12  and  _23
REMARK   10  A    between atoms: _13  and  CA_239
REMARK   11  A    between atoms: _14  and  _15
REMARK   12  A    between atoms: _20  and  _21
REMARK   13  A    between atoms: _23  and  _25
REMARK   14  A    between atoms: _25  and  _26
REMARK   15  A    between atoms: _29  and  _30
REMARK   16  A    between atoms: _35  and  _37
REMARK   17  A    between atoms: _37  and  _38
REMARK   18  A    between atoms: _37  and  _40
REMARK   19  A    between atoms: _40  and  _41
REMARK   20  A    between atoms: _51  and  _53
REMARK   21  A    between atoms: _53  and  _54
REMARK   22  A    between atoms: _53  and  _56
REMARK   23  A    between atoms: _56  and  _57
REMARK   24  A    between atoms: _60  and  _62
REMARK   25  A    between atoms: _62  and  _63
REMARK   26  A    between atoms: _62  and  _65
REMARK   27  A    between atoms: _65  and  _66
REMARK   28  A    between atoms: _66  and  _67
REMARK   29  A    between atoms: _70  and  _72
REMARK   30  A    between atoms: _72  and  _73
REMARK   31  A    between atoms: _72  and  _75
REMARK   32  A    between atoms: _75  and  _76
REMARK   33  A    between atoms: _82  and  _83
REMARK   34  A    between atoms: _88  and  _90
REMARK   35  A    between atoms: _90  and  _91
REMARK   36  A    between atoms: _90  and  _93
REMARK   37  A    between atoms: _93  and  _94
REMARK   38  A    between atoms: _97  and  _99
REMARK   39  A    between atoms: _99  and  _100
REMARK   40  A    between atoms: _99  and  _102
REMARK   41  A    between atoms: _102  and  _103
REMARK   42  A    between atoms: _103  and  _104
REMARK   43  A    between atoms: _109  and  _111
REMARK   44  A    between atoms: _111  and  _112
REMARK   45  A    between atoms: _114  and  _116
REMARK   46  A    between atoms: _116  and  _117
REMARK   47  A    between atoms: _116  and  _119
REMARK   48  A    between atoms: _119  and  _120
REMARK   49  A    between atoms: _123  and  _125
REMARK   50  A    between atoms: _125  and  _126
REMARK   51  A    between atoms: _125  and  _128
REMARK   52  A    between atoms: _130  and  _132
REMARK   53  A    between atoms: _132  and  _133
REMARK   54  A    between atoms: _135  and  _137
REMARK   55  A    between atoms: _137  and  _138
REMARK   56  A    between atoms: _137  and  _140
REMARK   57  A    between atoms: _140  and  _141
REMARK   58  A    between atoms: _146  and  _147
REMARK   59  A    between atoms: _149  and  _151
REMARK   60  A    between atoms: _151  and  _152
REMARK   61  A    between atoms: _151  and  _154
REMARK   62  A    between atoms: _154  and  _155
REMARK   63  A    between atoms: _160  and  _162
REMARK   64  A    between atoms: _162  and  _163
REMARK   65  A    between atoms: _162  and  _165
REMARK   66  A    between atoms: _165  and  _166
REMARK   67  A    between atoms: _166  and  _168
REMARK   68  A    between atoms: _168  and  CA_239
REMARK   69  A    between atoms: _169  and  _171
REMARK   70  A    between atoms: _171  and  _172
REMARK   71  A    between atoms: _171  and  _174
REMARK   72  A    between atoms: _178  and  _179
REMARK   73  A    between atoms: _184  and  _186
REMARK   74  A    between atoms: _186  and  _187
REMARK   75  A    between atoms: _189  and  _191
REMARK   76  A    between atoms: _191  and  _192
REMARK   77  A    between atoms: _191  and  _194
REMARK   78  A    between atoms: _194  and  _195
REMARK   79  A    between atoms: _198  and  _200
REMARK   80  A    between atoms: _200  and  _201
REMARK   81  A    between atoms: _200  and  _203
REMARK   82  A    between atoms: _203  and  _204
REMARK   83  A    between atoms: _209  and  _210
REMARK   84  A    between atoms: _212  and  _214
REMARK   85  A    between atoms: _214  and  _215
REMARK   86  A    between atoms: _217  and  _219
REMARK   87  A    between atoms: _219  and  _220
REMARK   88  A    between atoms: _219  and  _222
REMARK   89  A    between atoms: _222  and  _223
REMARK   90  A    between atoms: _228  and  _230
REMARK   91  A    between atoms: _230  and  _231
REMARK   92  A    between atoms: _230  and  _233
REMARK   93  A    between atoms: _233  and  _234
REMARK                            x       y       z     vdW  Elec       q    Type
REMARK                         _______ _______ _______ _____ _____    ______ ____
ROOT
ATOM      1  C   UNK A   1       9.257   0.449   6.198  0.00  0.00    +0.000 C 
ATOM      2  N   VAL A   4       9.632   1.680   5.869  0.00  0.00    +0.000 N 
ATOM      3  H   VAL A   4       9.658   2.417   6.602  0.00  0.00    +0.000 HD
ATOM      4  O   UNK A   1       9.167  -0.461   5.378  0.00  0.00    +0.000 OA
ENDROOT
BRANCH   2   5
ATOM      5  CA  VAL A   4      10.008   2.020   4.503  0.00  0.00    +0.000 C 
BRANCH   5   6
ATOM      6  C   VAL A   4      11.449   1.598   4.234  0.00  0.00    +0.000 C 
ATOM      7  O   VAL A   4      12.344   1.882   5.030  0.00  0.00    +0.000 OA
ATOM      8  N   PRO A   5      11.677   0.899   3.112  0.00  0.00    +0.000 N 
ATOM      9  CA  PRO A   5      13.027   0.443   2.769  0.00  0.00    +0.000 C 
ATOM     10  CB  PRO A   5      12.857  -0.085   1.344  0.00  0.00    +0.000 C 
ATOM     11  CG  PRO A   5      11.438  -0.541   1.294  0.00  0.00    +0.000 C 
ATOM     12  CD  PRO A   5      10.677   0.457   2.127  0.00  0.00    +0.000 C 
BRANCH   9  13
ATOM     13  C   PRO A   5      14.027   1.594   2.798  0.00  0.00    +0.000 C 
ATOM     14  N   GLY A   6      15.196   1.354   3.382  0.00  0.00    +0.000 N 
ATOM     15  H   GLY A   6      15.377   0.413   3.785  0.00  0.00    +0.000 HD
ATOM     16  O   PRO A   5      13.726   2.683   2.308  0.00  0.00    +0.000 OA
BRANCH  14  17
ATOM     17  CA  GLY A   6      16.227   2.371   3.472  0.00  0.00    +0.000 C 
BRANCH  17  18
ATOM     18  C   GLY A   6      16.105   3.281   4.682  0.00  0.00    +0.000 C 
ATOM     19  N   THR A   7      15.086   3.061   5.508  0.00  0.00    +0.000 N 
ATOM     20  H   THR A   7      14.437   2.268   5.328  0.00  0.00    +0.000 HD
ATOM     21  O   GLY A   6      16.928   4.175   4.873  0.00  0.00    +0.000 OA
BRANCH  19  22
ATOM     22  CA  THR A   7      14.871   3.925   6.667  0.00  0.00    +0.000 C 
BRANCH  22  23
ATOM     23  C   THR A   7      14.944   3.188   8.007  0.00  0.00    +0.000 C 
ATOM     24  O   THR A   7      14.663   3.767   9.049  0.00  0.00    +0.000 OA
ATOM     25  N   TYR A   8      15.338   1.920   7.988  0.00  0.00    +0.000 N 
ATOM     26  H   TYR A   8      15.619   1.483   7.087  0.00  0.00    +0.000 HD
BRANCH  25  27
ATOM     27  CA  TYR A   8      15.382   1.129   9.219  0.00  0.00    +0.000 C 
BRANCH  27  28
ATOM     28  C   TYR A   8      16.435   1.620  10.215  0.00  0.00    +0.000 C 
ATOM     29  O   TYR A   8      16.347   1.341  11.410  0.00  0.00    +0.000 OA
ATOM     30  N   GLY A   9      17.419   2.362   9.717  0.00  0.00    +0.000 N 
ATOM     31  H   GLY A   9      17.381   2.640   8.716  0.00  0.00    +0.000 HD
BRANCH  30  32
ATOM     32  CA  GLY A   9      18.546   2.798  10.524  0.00  0.00    +0.000 C 
BRANCH  32  33
ATOM     33  C   GLY A   9      18.223   3.454  11.857  0.00  0.00    +0.000 C 
ATOM     34  O   GLY A   9      18.955   3.276  12.829  0.00  0.00    +0.000 OA
ATOM     35  N   ASN A  10      17.139   4.220  11.908  0.00  0.00    +0.000 N 
ATOM     36  H   ASN A  10      16.529   4.301  11.069  0.00  0.00    +0.000 HD
BRANCH  35  37
ATOM     37  CA  ASN A  10      16.790   4.951  13.124  0.00  0.00    +0.000 C 
BRANCH  37  38
ATOM     38  C   ASN A  10      15.727   4.251  13.967  0.00  0.00    +0.000 C 
ATOM     39  O   ASN A  10      15.140   4.855  14.865  0.00  0.00    +0.000 OA
ATOM     40  N   ASN A  11      15.483   2.977  13.673  0.00  0.00    +0.000 N 
ATOM     41  H   ASN A  11      15.998   2.529  12.889  0.00  0.00    +0.000 HD
BRANCH  40  42
ATOM     42  CA  ASN A  11      14.508   2.193  14.426  0.00  0.00    +0.000 C 
BRANCH  42  43
ATOM     43  C   ASN A  11      15.072   1.713  15.757  0.00  0.00    +0.000 C 
ATOM     44  O   ASN A  11      16.285   1.588  15.920  0.00  0.00    +0.000 OA
ENDBRANCH  42  43
BRANCH  42  45
ATOM     45  CB  ASN A  11      14.023   0.997  13.598  0.00  0.00    +0.000 C 
BRANCH  45  46
ATOM     46  CG  ASN A  11      13.285   1.422  12.348  0.00  0.00    +0.000 C 
ATOM     47  OD1 ASN A  11      13.204   2.608  12.046  0.00  0.00    +0.000 OA
ATOM     48  ND2 ASN A  11      12.747   0.456  11.610  0.00  0.00    +0.000 N 
ATOM     49 HD21 ASN A  11      12.841  -0.537  11.905  0.00  0.00    +0.000 HD
ATOM     50 HD22 ASN A  11      12.233   0.693  10.738  0.00  0.00    +0.000 HD
ENDBRANCH  45  46
ENDBRANCH  42  45
ENDBRANCH  40  42
ENDBRANCH  37  38
BRANCH  37  51
ATOM     51  CB  ASN A  10      16.335   6.374  12.788  0.00  0.00    +0.000 C 
BRANCH  51  52
ATOM     52  CG  ASN A  10      15.065   6.397  11.967  0.00  0.00    +0.000 C 
ATOM     53  ND2 ASN A  10      14.340   7.508  12.018  0.00  0.00    +0.000 N 
ATOM     54 HD21 ASN A  10      14.655   8.308  12.603  0.00  0.00    +0.000 HD
ATOM     55 HD22 ASN A  10      13.457   7.578  11.473  0.00  0.00    +0.000 HD
ATOM     56  OD1 ASN A  10      14.740   5.423  11.294  0.00  0.00    +0.000 OA
ENDBRANCH  51  52
ENDBRANCH  37  51
ENDBRANCH  35  37
ENDBRANCH  32  33
ENDBRANCH  30  32
ENDBRANCH  27  28
BRANCH  27  57
ATOM     57  CB  TYR A   8      15.598  -0.353   8.903  0.00  0.00    +0.000 C 
BRANCH  57  58
ATOM     58  CG  TYR A   8      14.368  -1.039   8.357  0.00  0.00    +0.000 A 
ATOM     59  CD2 TYR A   8      13.659  -1.956   9.126  0.00  0.00    +0.000 A 
ATOM     60  CE2 TYR A   8      12.531  -2.585   8.628  0.00  0.00    +0.000 A 
ATOM     61  CZ  TYR A   8      12.103  -2.304   7.345  0.00  0.00    +0.000 A 
ATOM     62  CE1 TYR A   8      12.793  -1.400   6.564  0.00  0.00    +0.000 A 
ATOM     63  CD1 TYR A   8      13.918  -0.776   7.070  0.00  0.00    +0.000 A 
BRANCH  61  64
ATOM     64  OH  TYR A   8      10.982  -2.927   6.839  0.00  0.00    +0.000 OA
ATOM     65  HH  TYR A   8      10.200  -2.708   7.406  0.00  0.00    +0.000 HD
ENDBRANCH  61  64
ENDBRANCH  57  58
ENDBRANCH  27  57
ENDBRANCH  25  27
ENDBRANCH  22  23
BRANCH  22  66
ATOM     66  CB  THR A   7      13.525   4.683   6.577  0.00  0.00    +0.000 C 
ATOM     67  CG2 THR A   7      13.367   5.343   5.212  0.00  0.00    +0.000 C 
BRANCH  66  68
ATOM     68  OG1 THR A   7      12.440   3.773   6.801  0.00  0.00    +0.000 OA
ATOM     69  HG1 THR A   7      12.462   3.060   6.114  0.00  0.00    +0.000 HD
ENDBRANCH  66  68
ENDBRANCH  22  66
ENDBRANCH  19  22
ENDBRANCH  17  18
ENDBRANCH  14  17
ENDBRANCH   9  13
ENDBRANCH   5   6
BRANCH   5  70
ATOM     70  CB  VAL A   4       9.850   3.534   4.239  0.00  0.00    +0.000 C 
ATOM     71  CG2 VAL A   4       8.401   3.957   4.442  0.00  0.00    +0.000 C 
ATOM     72  CG1 VAL A   4      10.325   3.885   2.836  0.00  0.00    +0.000 C 
ENDBRANCH   5  70
ENDBRANCH   2   5
BRANCH   1  73
ATOM     73  C   UNK A   1       8.935   0.204   7.666  0.00  0.00    +0.000 C 
BRANCH  73  74
ATOM     74  N   UNK A   1       8.468  -1.167   7.828  0.00  0.00    +0.000 N 
ATOM     75  C   ASN A   2       7.566  -1.490   8.747  0.00  0.00    +0.000 C 
ATOM     76  O   ASN A   2       7.096  -0.673   9.535  0.00  0.00    +0.000 OA
ATOM     77  H   UNK A   1       8.850  -1.910   7.209  0.00  0.00    +0.000 HD
BRANCH  75  78
ATOM     78  CA  ASN A   2       7.134  -2.953   8.789  0.00  0.00    +0.000 C 
BRANCH  78  79
ATOM     79  N   ASN A   2       7.670  -3.660   9.949  0.00  0.00    +0.000 N 
ATOM     80  H   ASN A   2       7.063  -3.809  10.781  0.00  0.00    +0.000 HD
ATOM     81  C   UNK A   1       8.920  -4.118   9.963  0.00  0.00    +0.000 C 
ATOM     82  O   UNK A   1       9.705  -3.935   9.033  0.00  0.00    +0.000 OA
BRANCH  81  83
ATOM     83  C   UNK A   1       9.355  -4.902  11.202  0.00  0.00    +0.000 C 
BRANCH  83  84
ATOM     84  N   UNK A   1       9.981  -6.147  10.779  0.00  0.00    +0.000 NA
ATOM     85  H   UNK A   1      11.013  -6.243  10.868  0.00  0.00    +0.000 HD
ENDBRANCH  83  84
BRANCH  83  86
ATOM     86  C   UNK A   1      10.359  -4.086  12.015  0.00  0.00    +0.000 C 
BRANCH  86  87
ATOM     87  C   UNK A   1       9.783  -2.907  12.769  0.00  0.00    +0.000 A 
ATOM     88  C   UNK A   1       9.053  -3.093  13.938  0.00  0.00    +0.000 A 
ATOM     89  C   UNK A   1       8.540  -2.016  14.641  0.00  0.00    +0.000 A 
ATOM     90  C   UNK A   1       8.767  -0.735  14.183  0.00  0.00    +0.000 A 
ATOM     91  C   UNK A   1       9.496  -0.524  13.031  0.00  0.00    +0.000 A 
ATOM     92  C   UNK A   1      10.004  -1.606  12.336  0.00  0.00    +0.000 A 
BRANCH  90  93
ATOM     93  O   UNK A   1       8.261   0.340  14.877  0.00  0.00    +0.000 OA
ATOM     94  H   UNK A   1       7.768   0.016  15.672  0.00  0.00    +0.000 HD
ENDBRANCH  90  93
ENDBRANCH  86  87
ENDBRANCH  83  86
ENDBRANCH  81  83
ENDBRANCH  78  79
BRANCH  78  95
ATOM     95  CB  ASN A   2       5.606  -3.045   8.759  0.00  0.00    +0.000 C 
BRANCH  95  96
ATOM     96  CG  ASN A   2       5.022  -2.625   7.422  0.00  0.00    +0.000 C 
ATOM     97  ND2 ASN A   2       3.742  -2.266   7.420  0.00  0.00    +0.000 N 
ATOM     98 HD21 ASN A   2       3.198  -2.276   8.306  0.00  0.00    +0.000 HD
ATOM     99 HD22 ASN A   2       3.285  -1.975   6.532  0.00  0.00    +0.000 HD
ATOM    100  OD1 ASN A   2       5.711  -2.631   6.400  0.00  0.00    +0.000 OA
ENDBRANCH  95  96
ENDBRANCH  78  95
ENDBRANCH  75  78
ENDBRANCH  73  74
BRANCH  73 101
ATOM    101  C   UNK A   1      10.177   0.445   8.524  0.00  0.00    +0.000 C 
BRANCH 101 102
ATOM    102  C   UNK A   1      10.388   1.911   8.864  0.00  0.00    +0.000 C 
ATOM    103  O   UNK A   1       9.717   2.785   8.279  0.00  0.00    +0.000 OA
BRANCH 102 104
ATOM    104  O   UNK A   1      11.242   2.187   9.725  0.00  0.00    +0.000 OA
BRANCH 104 105
ATOM    105 CA   UNK A   1      12.448   4.360  10.296  0.00  0.00    +0.000 Ca
BRANCH 105 106
ATOM    106  O   UNK A   1      11.068   5.332  12.208  0.00  0.00    +0.000 OA
BRANCH 106 107
ATOM    107  C   UNK A   1      10.894   4.811  13.304  0.00  0.00    +0.000 C 
BRANCH 107 108
ATOM    108  N   UNK A   1      11.241   5.411  14.438  0.00  0.00    +0.000 NA
ATOM    109  H   UNK A   1      11.057   4.940  15.347  0.00  0.00    +0.000 HD
BRANCH 108 110
ATOM    110  C   UNK A   1      11.875   6.720  14.420  0.00  0.00    +0.000 C 
BRANCH 110 111
ATOM    111  C   UNK A   1      11.583   7.621  15.610  0.00  0.00    +0.000 C 
ATOM    112  O   UNK A   1      12.506   8.056  16.300  0.00  0.00    +0.000 OA
ATOM    113  N   UNK A   1      10.297   7.929  15.846  0.00  0.00    +0.000 N 
ATOM    114  C   UNK A   1       9.906   8.818  16.948  0.00  0.00    +0.000 C 
ATOM    115  C   UNK A   1       8.382   8.880  16.815  0.00  0.00    +0.000 C 
ATOM    116  C   UNK A   1       8.124   8.607  15.367  0.00  0.00    +0.000 C 
ATOM    117  C   UNK A   1       9.153   7.585  14.984  0.00  0.00    +0.000 C 
BRANCH 114 118
ATOM    118  C   UNK A   1      10.300   8.272  18.322  0.00  0.00    +0.000 C 
ATOM    119  O   UNK A   1      10.594   7.084  18.444  0.00  0.00    +0.000 OA
ENDBRANCH 114 118
ENDBRANCH 110 111
ENDBRANCH 108 110
ENDBRANCH 107 108
BRANCH 107 120
ATOM    120  C   UNK A   1      10.237   3.434  13.412  0.00  0.00    +0.000 C 
BRANCH 120 123
ATOM    121  C   UNK A   1      10.330   2.556  15.684  0.00  0.00    +0.000 C 
ATOM    122  O   UNK A   1      11.394   1.967  15.493  0.00  0.00    +0.000 OA
ATOM    123  N   UNK A   1       9.689   3.234  14.741  0.00  0.00    +0.000 N 
ATOM    124  H   UNK A   1       8.757   3.638  14.963  0.00  0.00    +0.000 HD
BRANCH 121 125
ATOM    125  C   UNK A   1       9.662   2.545  17.049  0.00  0.00    +0.000 C 
BRANCH 125 126
ATOM    126  N   UNK A   1       9.883   1.281  17.734  0.00  0.00    +0.000 NA
ATOM    127  H   UNK A   1      10.819   0.831  17.680  0.00  0.00    +0.000 HD
ENDBRANCH 125 126
BRANCH 125 128
ATOM    128  C   UNK A   1      10.178   3.716  17.887  0.00  0.00    +0.000 C 
BRANCH 128 129
ATOM    129  O   UNK A   1      10.164   4.918  17.135  0.00  0.00    +0.000 OA
ATOM    130  H   UNK A   1      10.501   5.661  17.696  0.00  0.00    +0.000 HD
ENDBRANCH 128 129
ENDBRANCH 125 128
ENDBRANCH 121 125
ENDBRANCH 120 123
BRANCH 120 131
ATOM    131  C   UNK A   1       9.119   3.324  12.378  0.00  0.00    +0.000 C 
BRANCH 131 132
ATOM    132  C   UNK A   1       7.971   4.268  12.656  0.00  0.00    +0.000 A 
ATOM    133  C   UNK A   1       6.933   3.902  13.507  0.00  0.00    +0.000 A 
ATOM    134  C   UNK A   1       5.887   4.768  13.771  0.00  0.00    +0.000 A 
ATOM    135  C   UNK A   1       5.874   6.017  13.186  0.00  0.00    +0.000 A 
ATOM    136  C   UNK A   1       6.893   6.403  12.342  0.00  0.00    +0.000 A 
ATOM    137  C   UNK A   1       7.934   5.531  12.084  0.00  0.00    +0.000 A 
BRANCH 135 138
ATOM    138  O   UNK A   1       4.838   6.885  13.438  0.00  0.00    +0.000 OA
ATOM    139  H   UNK A   1       4.195   6.458  14.058  0.00  0.00    +0.000 HD
ENDBRANCH 135 138
ENDBRANCH 131 132
ENDBRANCH 120 131
ENDBRANCH 107 120
ENDBRANCH 106 107
ENDBRANCH 105 106
ENDBRANCH 104 105
ENDBRANCH 102 104
ENDBRANCH 101 102
ENDBRANCH  73 101
ENDBRANCH   1  73
TORSDOF 55
REMARK  Name = ../refined-set-2016/3zyf/3zyf_pocket.pdb
REMARK  93 active torsions:
REMARK  status: ('A' for Active; 'I' for Inactive)
REMARK    1  A    between atoms: _1  and  _3
REMARK    2  A    between atoms: _3  and  _4
REMARK    3  A    between atoms: _3  and  _6
REMARK    4  A    between atoms: _6  and  _7
REMARK    5  A    between atoms: _9  and  _11
REMARK    6  A    between atoms: _11  and  _12
REMARK    7  A    between atoms: _11  and  _14
REMARK    8  A    between atoms: _12  and  _13
REMARK    9  A    between atoms: _12  and  _23
REMARK   10  A    between atoms: _13  and  CA_239
REMARK   11  A    between atoms: _14  and  _15
REMARK   12  A    between atoms: _20  and  _21
REMARK   13  A    between atoms: _23  and  _25
REMARK   14  A    between atoms: _25  and  _26
REMARK   15  A    between atoms: _29  and  _30
REMARK   16  A    between atoms: _35  and  _37
REMARK   17  A    between atoms: _37  and  _38
REMARK   18  A    between atoms: _37  and  _40
REMARK   19  A    between atoms: _40  and  _41
REMARK   20  A    between atoms: _51  and  _53
REMARK   21  A    between atoms: _53  and  _54
REMARK   22  A    between atoms: _53  and  _56
REMARK   23  A    between atoms: _56  and  _57
REMARK   24  A    between atoms: _60  and  _62
REMARK   25  A    between atoms: _62  and  _63
REMARK   26  A    between atoms: _62  and  _65
REMARK   27  A    between atoms: _65  and  _66
REMARK   28  A    between atoms: _66  and  _67
REMARK   29  A    between atoms: _70  and  _72
REMARK   30  A    between atoms: _72  and  _73
REMARK   31  A    between atoms: _72  and  _75
REMARK   32  A    between atoms: _75  and  _76
REMARK   33  A    between atoms: _82  and  _83
REMARK   34  A    between atoms: _88  and  _90
REMARK   35  A    between atoms: _90  and  _91
REMARK   36  A    between atoms: _90  and  _93
REMARK   37  A    between atoms: _93  and  _94
REMARK   38  A    between atoms: _97  and  _99
REMARK   39  A    between atoms: _99  and  _100
REMARK   40  A    between atoms: _99  and  _102
REMARK   41  A    between atoms: _102  and  _103
REMARK   42  A    between atoms: _103  and  _104
REMARK   43  A    between atoms: _109  and  _111
REMARK   44  A    between atoms: _111  and  _112
REMARK   45  A    between atoms: _114  and  _116
REMARK   46  A    between atoms: _116  and  _117
REMARK   47  A    between atoms: _116  and  _119
REMARK   48  A    between atoms: _119  and  _120
REMARK   49  A    between atoms: _123  and  _125
REMARK   50  A    between atoms: _125  and  _126
REMARK   51  A    between atoms: _125  and  _128
REMARK   52  A    between atoms: _130  and  _132
REMARK   53  A    between atoms: _132  and  _133
REMARK   54  A    between atoms: _135  and  _137
REMARK   55  A    between atoms: _137  and  _138
REMARK   56  A    between atoms: _137  and  _140
REMARK   57  A    between atoms: _140  and  _141
REMARK   58  A    between atoms: _146  and  _147
REMARK   59  A    between atoms: _149  and  _151
REMARK   60  A    between atoms: _151  and  _152
REMARK   61  A    between atoms: _151  and  _154
REMARK   62  A    between atoms: _154  and  _155
REMARK   63  A    between atoms: _160  and  _162
REMARK   64  A    between atoms: _162  and  _163
REMARK   65  A    between atoms: _162  and  _165
REMARK   66  A    between atoms: _165  and  _166
REMARK   67  A    between atoms: _166  and  _168
REMARK   68  A    between atoms: _168  and  CA_239
REMARK   69  A    between atoms: _169  and  _171
REMARK   70  A    between atoms: _171  and  _172
REMARK   71  A    between atoms: _171  and  _174
REMARK   72  A    between atoms: _178  and  _179
REMARK   73  A    between atoms: _184  and  _186
REMARK   74  A    between atoms: _186  and  _187
REMARK   75  A    between atoms: _189  and  _191
REMARK   76  A    between atoms: _191  and  _192
REMARK   77  A    between atoms: _191  and  _194
REMARK   78  A    between atoms: _194  and  _195
REMARK   79  A    between atoms: _198  and  _200
REMARK   80  A    between atoms: _200  and  _201
REMARK   81  A    between atoms: _200  and  _203
REMARK   82  A    between atoms: _203  and  _204
REMARK   83  A    between atoms: _209  and  _210
REMARK   84  A    between atoms: _212  and  _214
REMARK   85  A    between atoms: _214  and  _215
REMARK   86  A    between atoms: _217  and  _219
REMARK   87  A    between atoms: _219  and  _220
REMARK   88  A    between atoms: _219  and  _222
REMARK   89  A    between atoms: _222  and  _223
REMARK   90  A    between atoms: _228  and  _230
REMARK   91  A    between atoms: _230  and  _231
REMARK   92  A    between atoms: _230  and  _233
REMARK   93  A    between atoms: _233  and  _234
REMARK                            x       y       z     vdW  Elec       q    Type
REMARK                         _______ _______ _______ _____ _____    ______ ____
ROOT
ATOM      1  CG  TRP A   1       3.400   2.993  17.762  0.00  0.00    -0.002 A 
ATOM      2  CD1 TRP A   1       2.168   3.573  17.833  0.00  0.00    +0.068 A 
ATOM      3  NE1 TRP A   1       2.271   4.928  17.637  0.00  0.00    -0.352 N 
ATOM      4  HE1 TRP A   1       1.478   5.601  17.641  0.00  0.00    +0.166 HD
ATOM      5  CE2 TRP A   1       3.588   5.249  17.435  0.00  0.00    +0.056 A 
ATOM      6  CZ2 TRP A   1       4.185   6.485  17.197  0.00  0.00    +0.017 A 
ATOM      7  CH2 TRP A   1       5.543   6.507  17.031  0.00  0.00    +0.001 A 
ATOM      8  CZ3 TRP A   1       6.307   5.334  17.098  0.00  0.00    +0.000 A 
ATOM      9  CE3 TRP A   1       5.716   4.109  17.335  0.00  0.00    +0.001 A 
ATOM     10  CD2 TRP A   1       4.329   4.053  17.509  0.00  0.00    +0.013 A 
ENDROOT
BRANCH   1  11
ATOM     11  CB  TRP A   1       3.719   1.543  17.930  0.00  0.00    +0.053 C 
BRANCH  11  12
ATOM     12  CA  TRP A   1       4.113   1.172  19.365  0.00  0.00    +0.137 C 
BRANCH  12  13
ATOM     13  N   TRP A   1       5.365   1.814  19.732  0.00  0.00    -0.239 NA
ATOM     14  H   TRP A   1       6.247   1.493  19.284  0.00  0.00    +0.142 HD
ENDBRANCH  12  13
BRANCH  12  15
ATOM     15  C   TRP A   1       4.235  -0.339  19.499  0.00  0.00    +0.224 C 
ATOM     16  O   TRP A   1       5.333  -0.890  19.408  0.00  0.00    -0.287 OA
ENDBRANCH  12  15
ENDBRANCH  11  12
ENDBRANCH   1  11
TORSDOF 4
REMARK  Name = ../refined-set-2016/3zyf/3zyf_pocket.pdb
REMARK  93 active torsions:
REMARK  status: ('A' for Active; 'I' for Inactive)
REMARK    1  A    between atoms: _1  and  _3
REMARK    2  A    between atoms: _3  and  _4
REMARK    3  A    between atoms: _3  and  _6
REMARK    4  A    between atoms: _6  and  _7
REMARK    5  A    between atoms: _9  and  _11
REMARK    6  A    between atoms: _11  and  _12
REMARK    7  A    between atoms: _11  and  _14
REMARK    8  A    between atoms: _12  and  _13
REMARK    9  A    between atoms: _12  and  _23
REMARK   10  A    between atoms: _13  and  CA_239
REMARK   11  A    between atoms: _14  and  _15
REMARK   12  A    between atoms: _20  and  _21
REMARK   13  A    between atoms: _23  and  _25
REMARK   14  A    between atoms: _25  and  _26
REMARK   15  A    between atoms: _29  and  _30
REMARK   16  A    between atoms: _35  and  _37
REMARK   17  A    between atoms: _37  and  _38
REMARK   18  A    between atoms: _37  and  _40
REMARK   19  A    between atoms: _40  and  _41
REMARK   20  A    between atoms: _51  and  _53
REMARK   21  A    between atoms: _53  and  _54
REMARK   22  A    between atoms: _53  and  _56
REMARK   23  A    between atoms: _56  and  _57
REMARK   24  A    between atoms: _60  and  _62
REMARK   25  A    between atoms: _62  and  _63
REMARK   26  A    between atoms: _62  and  _65
REMARK   27  A    between atoms: _65  and  _66
REMARK   28  A    between atoms: _66  and  _67
REMARK   29  A    between atoms: _70  and  _72
REMARK   30  A    between atoms: _72  and  _73
REMARK   31  A    between atoms: _72  and  _75
REMARK   32  A    between atoms: _75  and  _76
REMARK   33  A    between atoms: _82  and  _83
REMARK   34  A    between atoms: _88  and  _90
REMARK   35  A    between atoms: _90  and  _91
REMARK   36  A    between atoms: _90  and  _93
REMARK   37  A    between atoms: _93  and  _94
REMARK   38  A    between atoms: _97  and  _99
REMARK   39  A    between atoms: _99  and  _100
REMARK   40  A    between atoms: _99  and  _102
REMARK   41  A    between atoms: _102  and  _103
REMARK   42  A    between atoms: _103  and  _104
REMARK   43  A    between atoms: _109  and  _111
REMARK   44  A    between atoms: _111  and  _112
REMARK   45  A    between atoms: _114  and  _116
REMARK   46  A    between atoms: _116  and  _117
REMARK   47  A    between atoms: _116  and  _119
REMARK   48  A    between atoms: _119  and  _120
REMARK   49  A    between atoms: _123  and  _125
REMARK   50  A    between atoms: _125  and  _126
REMARK   51  A    between atoms: _125  and  _128
REMARK   52  A    between atoms: _130  and  _132
REMARK   53  A    between atoms: _132  and  _133
REMARK   54  A    between atoms: _135  and  _137
REMARK   55  A    between atoms: _137  and  _138
REMARK   56  A    between atoms: _137  and  _140
REMARK   57  A    between atoms: _140  and  _141
REMARK   58  A    between atoms: _146  and  _147
REMARK   59  A    between atoms: _149  and  _151
REMARK   60  A    between atoms: _151  and  _152
REMARK   61  A    between atoms: _151  and  _154
REMARK   62  A    between atoms: _154  and  _155
REMARK   63  A    between atoms: _160  and  _162
REMARK   64  A    between atoms: _162  and  _163
REMARK   65  A    between atoms: _162  and  _165
REMARK   66  A    between atoms: _165  and  _166
REMARK   67  A    between atoms: _166  and  _168
REMARK   68  A    between atoms: _168  and  CA_239
REMARK   69  A    between atoms: _169  and  _171
REMARK   70  A    between atoms: _171  and  _172
REMARK   71  A    between atoms: _171  and  _174
REMARK   72  A    between atoms: _178  and  _179
REMARK   73  A    between atoms: _184  and  _186
REMARK   74  A    between atoms: _186  and  _187
REMARK   75  A    between atoms: _189  and  _191
REMARK   76  A    between atoms: _191  and  _192
REMARK   77  A    between atoms: _191  and  _194
REMARK   78  A    between atoms: _194  and  _195
REMARK   79  A    between atoms: _198  and  _200
REMARK   80  A    between atoms: _200  and  _201
REMARK   81  A    between atoms: _200  and  _203
REMARK   82  A    between atoms: _203  and  _204
REMARK   83  A    between atoms: _209  and  _210
REMARK   84  A    between atoms: _212  and  _214
REMARK   85  A    between atoms: _214  and  _215
REMARK   86  A    between atoms: _217  and  _219
REMARK   87  A    between atoms: _219  and  _220
REMARK   88  A    between atoms: _219  and  _222
REMARK   89  A    between atoms: _222  and  _223
REMARK   90  A    between atoms: _228  and  _230
REMARK   91  A    between atoms: _230  and  _231
REMARK   92  A    between atoms: _230  and  _233
REMARK   93  A    between atoms: _233  and  _234
REMARK                            x       y       z     vdW  Elec       q    Type
REMARK                         _______ _______ _______ _____ _____    ______ ____
ROOT
ATOM      1  CA  ASP A   1       1.042   3.147  14.470  0.00  0.00    +0.144 C 
ENDROOT
BRANCH   1   2
ATOM      2  N   ASP A   1       1.612   1.826  14.231  0.00  0.00    -0.239 NA
ATOM      3  H   ASP A   1       2.216   1.688  13.396  0.00  0.00    +0.142 HD
ENDBRANCH   1   2
BRANCH   1   4
ATOM      4  C   ASP A   1      -0.121   3.424  13.520  0.00  0.00    +0.225 C 
ATOM      5  O   ASP A   1       0.091   3.746  12.353  0.00  0.00    -0.287 OA
ENDBRANCH   1   4
BRANCH   1   6
ATOM      6  CB  ASP A   1       2.123   4.214  14.282  0.00  0.00    +0.139 C 
BRANCH   6   7
ATOM      7  CG  ASP A   1       1.590   5.622  14.445  0.00  0.00    +0.367 C 
ATOM      8  OD2 ASP A   1       0.366   5.784  14.625  0.00  0.00    -0.246 OA
ATOM      9  OD1 ASP A   1       2.398   6.572  14.380  0.00  0.00    -0.246 OA
ENDBRANCH   6   7
ENDBRANCH   1   6
TORSDOF 4
REMARK  Name = ../refined-set-2016/3zyf/3zyf_pocket.pdb
REMARK  93 active torsions:
REMARK  status: ('A' for Active; 'I' for Inactive)
REMARK    1  A    between atoms: _1  and  _3
REMARK    2  A    between atoms: _3  and  _4
REMARK    3  A    between atoms: _3  and  _6
REMARK    4  A    between atoms: _6  and  _7
REMARK    5  A    between atoms: _9  and  _11
REMARK    6  A    between atoms: _11  and  _12
REMARK    7  A    between atoms: _11  and  _14
REMARK    8  A    between atoms: _12  and  _13
REMARK    9  A    between atoms: _12  and  _23
REMARK   10  A    between atoms: _13  and  CA_239
REMARK   11  A    between atoms: _14  and  _15
REMARK   12  A    between atoms: _20  and  _21
REMARK   13  A    between atoms: _23  and  _25
REMARK   14  A    between atoms: _25  and  _26
REMARK   15  A    between atoms: _29  and  _30
REMARK   16  A    between atoms: _35  and  _37
REMARK   17  A    between atoms: _37  and  _38
REMARK   18  A    between atoms: _37  and  _40
REMARK   19  A    between atoms: _40  and  _41
REMARK   20  A    between atoms: _51  and  _53
REMARK   21  A    between atoms: _53  and  _54
REMARK   22  A    between atoms: _53  and  _56
REMARK   23  A    between atoms: _56  and  _57
REMARK   24  A    between atoms: _60  and  _62
REMARK   25  A    between atoms: _62  and  _63
REMARK   26  A    between atoms: _62  and  _65
REMARK   27  A    between atoms: _65  and  _66
REMARK   28  A    between atoms: _66  and  _67
REMARK   29  A    between atoms: _70  and  _72
REMARK   30  A    between atoms: _72  and  _73
REMARK   31  A    between atoms: _72  and  _75
REMARK   32  A    between atoms: _75  and  _76
REMARK   33  A    between atoms: _82  and  _83
REMARK   34  A    between atoms: _88  and  _90
REMARK   35  A    between atoms: _90  and  _91
REMARK   36  A    between atoms: _90  and  _93
REMARK   37  A    between atoms: _93  and  _94
REMARK   38  A    between atoms: _97  and  _99
REMARK   39  A    between atoms: _99  and  _100
REMARK   40  A    between atoms: _99  and  _102
REMARK   41  A    between atoms: _102  and  _103
REMARK   42  A    between atoms: _103  and  _104
REMARK   43  A    between atoms: _109  and  _111
REMARK   44  A    between atoms: _111  and  _112
REMARK   45  A    between atoms: _114  and  _116
REMARK   46  A    between atoms: _116  and  _117
REMARK   47  A    between atoms: _116  and  _119
REMARK   48  A    between atoms: _119  and  _120
REMARK   49  A    between atoms: _123  and  _125
REMARK   50  A    between atoms: _125  and  _126
REMARK   51  A    between atoms: _125  and  _128
REMARK   52  A    between atoms: _130  and  _132
REMARK   53  A    between atoms: _132  and  _133
REMARK   54  A    between atoms: _135  and  _137
REMARK   55  A    between atoms: _137  and  _138
REMARK   56  A    between atoms: _137  and  _140
REMARK   57  A    between atoms: _140  and  _141
REMARK   58  A    between atoms: _146  and  _147
REMARK   59  A    between atoms: _149  and  _151
REMARK   60  A    between atoms: _151  and  _152
REMARK   61  A    between atoms: _151  and  _154
REMARK   62  A    between atoms: _154  and  _155
REMARK   63  A    between atoms: _160  and  _162
REMARK   64  A    between atoms: _162  and  _163
REMARK   65  A    between atoms: _162  and  _165
REMARK   66  A    between atoms: _165  and  _166
REMARK   67  A    between atoms: _166  and  _168
REMARK   68  A    between atoms: _168  and  CA_239
REMARK   69  A    between atoms: _169  and  _171
REMARK   70  A    between atoms: _171  and  _172
REMARK   71  A    between atoms: _171  and  _174
REMARK   72  A    between atoms: _178  and  _179
REMARK   73  A    between atoms: _184  and  _186
REMARK   74  A    between atoms: _186  and  _187
REMARK   75  A    between atoms: _189  and  _191
REMARK   76  A    between atoms: _191  and  _192
REMARK   77  A    between atoms: _191  and  _194
REMARK   78  A    between atoms: _194  and  _195
REMARK   79  A    between atoms: _198  and  _200
REMARK   80  A    between atoms: _200  and  _201
REMARK   81  A    between atoms: _200  and  _203
REMARK   82  A    between atoms: _203  and  _204
REMARK   83  A    between atoms: _209  and  _210
REMARK   84  A    between atoms: _212  and  _214
REMARK   85  A    between atoms: _214  and  _215
REMARK   86  A    between atoms: _217  and  _219
REMARK   87  A    between atoms: _219  and  _220
REMARK   88  A    between atoms: _219  and  _222
REMARK   89  A    between atoms: _222  and  _223
REMARK   90  A    between atoms: _228  and  _230
REMARK   91  A    between atoms: _230  and  _231
REMARK   92  A    between atoms: _230  and  _233
REMARK   93  A    between atoms: _233  and  _234
REMARK                            x       y       z     vdW  Elec       q    Type
REMARK                         _______ _______ _______ _____ _____    ______ ____
ROOT
ATOM      1  CA  ASP A   4       1.881   4.569   4.363  0.00  0.00    +0.160 C 
ENDROOT
BRANCH   1   4
ATOM      2  C   PRO A   3       1.478   6.316   6.021  0.00  0.00    +0.241 C 
ATOM      3  O   PRO A   3       2.653   6.338   6.384  0.00  0.00    -0.273 OA
ATOM      4  N   ASP A   4       1.017   5.489   5.090  0.00  0.00    -0.297 N 
ATOM      5  H   ASP A   4       0.000   5.499   4.872  0.00  0.00    +0.150 HD
BRANCH   2  12
ATOM      6  C   HIS A   2       0.584   6.712   9.007  0.00  0.00    +0.244 C 
ATOM      7  O   HIS A   2       0.180   5.572   8.790  0.00  0.00    -0.273 OA
ATOM      8  N   PRO A   3       0.746   7.614   8.027  0.00  0.00    -0.272 N 
ATOM      9  CD  PRO A   3       1.097   9.037   8.177  0.00  0.00    +0.094 C 
ATOM     10  CG  PRO A   3       1.351   9.475   6.761  0.00  0.00    +0.024 C 
ATOM     11  CB  PRO A   3       0.481   8.618   5.918  0.00  0.00    +0.031 C 
ATOM     12  CA  PRO A   3       0.450   7.263   6.635  0.00  0.00    +0.152 C 
BRANCH   6  13
ATOM     13  CA  HIS A   2       0.912   7.164  10.430  0.00  0.00    +0.155 C 
BRANCH  13  15
ATOM     14  C   GLU A   1      -1.107   7.697  11.678  0.00  0.00    +0.238 C 
ATOM     15  N   HIS A   2      -0.173   6.814  11.341  0.00  0.00    -0.297 N 
ATOM     16  H   HIS A   2      -0.216   5.853  11.735  0.00  0.00    +0.150 HD
ATOM     17  O   GLU A   1      -1.137   8.838  11.225  0.00  0.00    -0.274 OA
BRANCH  14  18
ATOM     18  CA  GLU A   1      -2.165   7.231  12.679  0.00  0.00    +0.145 C 
BRANCH  18  19
ATOM     19  N   GLU A   1      -1.989   5.845  13.111  0.00  0.00    -0.238 NA
ATOM     20  H   GLU A   1      -1.255   5.618  13.812  0.00  0.00    +0.142 HD
ENDBRANCH  18  19
BRANCH  18  21
ATOM     21  CB  GLU A   1      -2.199   8.170  13.892  0.00  0.00    +0.038 C 
BRANCH  21  22
ATOM     22  CG  GLU A   1      -3.232   7.798  14.943  0.00  0.00    +0.116 C 
BRANCH  22  23
ATOM     23  CD  GLU A   1      -3.910   9.005  15.560  0.00  0.00    +0.365 C 
ATOM     24  OE2 GLU A   1      -4.767   8.821  16.451  0.00  0.00    -0.246 OA
ATOM     25  OE1 GLU A   1      -3.591  10.140  15.150  0.00  0.00    -0.246 OA
ENDBRANCH  22  23
ENDBRANCH  21  22
ENDBRANCH  18  21
ENDBRANCH  14  18
ENDBRANCH  13  15
BRANCH  13  26
ATOM     26  CB  HIS A   2       2.225   6.533  10.901  0.00  0.00    +0.076 C 
BRANCH  26  27
ATOM     27  CG  HIS A   2       3.446   7.106  10.248  0.00  0.00    +0.082 A 
ATOM     28  ND1 HIS A   2       3.973   8.328  10.599  0.00  0.00    -0.227 NA
ATOM     29  CE1 HIS A   2       5.049   8.568   9.867  0.00  0.00    +0.199 A 
ATOM     30  NE2 HIS A   2       5.241   7.540   9.063  0.00  0.00    -0.221 NA
ATOM     31  CD2 HIS A   2       4.254   6.609   9.280  0.00  0.00    +0.115 A 
ENDBRANCH  26  27
ENDBRANCH  13  26
ENDBRANCH   6  13
ENDBRANCH   2  12
ENDBRANCH   1   4
BRANCH   1  32
ATOM     32  C   ASP A   4       2.654   5.330   3.290  0.00  0.00    +0.241 C 
ATOM     33  N   GLN A   5       3.965   5.452   3.479  0.00  0.00    -0.297 N 
ATOM     34  H   GLN A   5       4.399   5.010   4.314  0.00  0.00    +0.150 HD
ATOM     35  O   ASP A   4       2.072   5.794   2.309  0.00  0.00    -0.273 OA
BRANCH  33  36
ATOM     36  CA  GLN A   5       4.812   6.191   2.543  0.00  0.00    +0.149 C 
BRANCH  36  37
ATOM     37  C   GLN A   5       5.760   5.276   1.766  0.00  0.00    +0.241 C 
ATOM     38  N   GLY A   6       5.336   4.037   1.538  0.00  0.00    -0.295 N 
ATOM     39  H   GLY A   6       4.400   3.749   1.887  0.00  0.00    +0.150 HD
ATOM     40  O   GLN A   5       6.855   5.688   1.381  0.00  0.00    -0.273 OA
BRANCH  38  41
ATOM     41  CA  GLY A   6       6.148   3.076   0.813  0.00  0.00    +0.176 C 
BRANCH  41  42
ATOM     42  C   GLY A   6       6.589   1.904   1.673  0.00  0.00    +0.243 C 
ATOM     43  N   LEU A   7       5.729   1.504   2.605  0.00  0.00    -0.298 N 
ATOM     44  H   LEU A   7       4.816   1.996   2.687  0.00  0.00    +0.150 HD
ATOM     45  O   GLY A   6       7.685   1.373   1.495  0.00  0.00    -0.273 OA
BRANCH  43  46
ATOM     46  CA  LEU A   7       6.017   0.398   3.521  0.00  0.00    +0.137 C 
BRANCH  46  47
ATOM     47  C   LEU A   7       6.224  -0.933   2.796  0.00  0.00    +0.227 C 
ATOM     48  O   LEU A   7       5.712  -1.135   1.695  0.00  0.00    -0.286 OA
ENDBRANCH  46  47
BRANCH  46  49
ATOM     49  CB  LEU A   7       4.886   0.262   4.544  0.00  0.00    +0.028 C 
BRANCH  49  50
ATOM     50  CG  LEU A   7       4.667   1.477   5.446  0.00  0.00    +0.002 C 
ATOM     51  CD2 LEU A   7       5.792   1.589   6.463  0.00  0.00    +0.000 C 
ATOM     52  CD1 LEU A   7       3.310   1.422   6.142  0.00  0.00    +0.000 C 
ENDBRANCH  49  50
ENDBRANCH  46  49
ENDBRANCH  43  46
ENDBRANCH  41  42
ENDBRANCH  38  41
ENDBRANCH  36  37
BRANCH  36  53
ATOM     53  CB  GLN A   5       5.621   7.256   3.285  0.00  0.00    +0.039 C 
BRANCH  53  54
ATOM     54  CG  GLN A   5       4.772   8.239   4.072  0.00  0.00    +0.087 C 
BRANCH  54  55
ATOM     55  CD  GLN A   5       5.607   9.268   4.809  0.00  0.00    +0.219 C 
ATOM     56  OE1 GLN A   5       6.455   8.924   5.637  0.00  0.00    -0.275 OA
ATOM     57  NE2 GLN A   5       5.376  10.541   4.507  0.00  0.00    -0.329 N 
ATOM     58 HE21 GLN A   5       5.920  11.294   4.975  0.00  0.00    +0.145 HD
ATOM     59 HE22 GLN A   5       4.651  10.785   3.802  0.00  0.00    +0.145 HD
ENDBRANCH  54  55
ENDBRANCH  53  54
ENDBRANCH  36  53
ENDBRANCH  33  36
ENDBRANCH   1  32
BRANCH   1  60
ATOM     60  CB  ASP A   4       1.026   3.474   3.721  0.00  0.00    +0.143 C 
BRANCH  60  61
ATOM     61  CG  ASP A   4       1.840   2.485   2.905  0.00  0.00    +0.367 C 
ATOM     62  OD2 ASP A   4       1.297   1.407   2.595  0.00  0.00    -0.246 OA
ATOM     63  OD1 ASP A   4       3.006   2.777   2.566  0.00  0.00    -0.246 OA
ENDBRANCH  60  61
ENDBRANCH   1  60
TORSDOF 25
REMARK  Name = ../refined-set-2016/3zyf/3zyf_pocket.pdb
REMARK  93 active torsions:
REMARK  status: ('A' for Active; 'I' for Inactive)
REMARK    1  A    between atoms: _1  and  _3
REMARK    2  A    between atoms: _3  and  _4
REMARK    3  A    between atoms: _3  and  _6
REMARK    4  A    between atoms: _6  and  _7
REMARK    5  A    between atoms: _9  and  _11
REMARK    6  A    between atoms: _11  and  _12
REMARK    7  A    between atoms: _11  and  _14
REMARK    8  A    between atoms: _12  and  _13
REMARK    9  A    between atoms: _12  and  _23
REMARK   10  A    between atoms: _13  and  CA_239
REMARK   11  A    between atoms: _14  and  _15
REMARK   12  A    between atoms: _20  and  _21
REMARK   13  A    between atoms: _23  and  _25
REMARK   14  A    between atoms: _25  and  _26
REMARK   15  A    between atoms: _29  and  _30
REMARK   16  A    between atoms: _35  and  _37
REMARK   17  A    between atoms: _37  and  _38
REMARK   18  A    between atoms: _37  and  _40
REMARK   19  A    between atoms: _40  and  _41
REMARK   20  A    between atoms: _51  and  _53
REMARK   21  A    between atoms: _53  and  _54
REMARK   22  A    between atoms: _53  and  _56
REMARK   23  A    between atoms: _56  and  _57
REMARK   24  A    between atoms: _60  and  _62
REMARK   25  A    between atoms: _62  and  _63
REMARK   26  A    between atoms: _62  and  _65
REMARK   27  A    between atoms: _65  and  _66
REMARK   28  A    between atoms: _66  and  _67
REMARK   29  A    between atoms: _70  and  _72
REMARK   30  A    between atoms: _72  and  _73
REMARK   31  A    between atoms: _72  and  _75
REMARK   32  A    between atoms: _75  and  _76
REMARK   33  A    between atoms: _82  and  _83
REMARK   34  A    between atoms: _88  and  _90
REMARK   35  A    between atoms: _90  and  _91
REMARK   36  A    between atoms: _90  and  _93
REMARK   37  A    between atoms: _93  and  _94
REMARK   38  A    between atoms: _97  and  _99
REMARK   39  A    between atoms: _99  and  _100
REMARK   40  A    between atoms: _99  and  _102
REMARK   41  A    between atoms: _102  and  _103
REMARK   42  A    between atoms: _103  and  _104
REMARK   43  A    between atoms: _109  and  _111
REMARK   44  A    between atoms: _111  and  _112
REMARK   45  A    between atoms: _114  and  _116
REMARK   46  A    between atoms: _116  and  _117
REMARK   47  A    between atoms: _116  and  _119
REMARK   48  A    between atoms: _119  and  _120
REMARK   49  A    between atoms: _123  and  _125
REMARK   50  A    between atoms: _125  and  _126
REMARK   51  A    between atoms: _125  and  _128
REMARK   52  A    between atoms: _130  and  _132
REMARK   53  A    between atoms: _132  and  _133
REMARK   54  A    between atoms: _135  and  _137
REMARK   55  A    between atoms: _137  and  _138
REMARK   56  A    between atoms: _137  and  _140
REMARK   57  A    between atoms: _140  and  _141
REMARK   58  A    between atoms: _146  and  _147
REMARK   59  A    between atoms: _149  and  _151
REMARK   60  A    between atoms: _151  and  _152
REMARK   61  A    between atoms: _151  and  _154
REMARK   62  A    between atoms: _154  and  _155
REMARK   63  A    between atoms: _160  and  _162
REMARK   64  A    between atoms: _162  and  _163
REMARK   65  A    between atoms: _162  and  _165
REMARK   66  A    between atoms: _165  and  _166
REMARK   67  A    between atoms: _166  and  _168
REMARK   68  A    between atoms: _168  and  CA_239
REMARK   69  A    between atoms: _169  and  _171
REMARK   70  A    between atoms: _171  and  _172
REMARK   71  A    between atoms: _171  and  _174
REMARK   72  A    between atoms: _178  and  _179
REMARK   73  A    between atoms: _184  and  _186
REMARK   74  A    between atoms: _186  and  _187
REMARK   75  A    between atoms: _189  and  _191
REMARK   76  A    between atoms: _191  and  _192
REMARK   77  A    between atoms: _191  and  _194
REMARK   78  A    between atoms: _194  and  _195
REMARK   79  A    between atoms: _198  and  _200
REMARK   80  A    between atoms: _200  and  _201
REMARK   81  A    between atoms: _200  and  _203
REMARK   82  A    between atoms: _203  and  _204
REMARK   83  A    between atoms: _209  and  _210
REMARK   84  A    between atoms: _212  and  _214
REMARK   85  A    between atoms: _214  and  _215
REMARK   86  A    between atoms: _217  and  _219
REMARK   87  A    between atoms: _219  and  _220
REMARK   88  A    between atoms: _219  and  _222
REMARK   89  A    between atoms: _222  and  _223
REMARK   90  A    between atoms: _228  and  _230
REMARK   91  A    between atoms: _230  and  _231
REMARK   92  A    between atoms: _230  and  _233
REMARK   93  A    between atoms: _233  and  _234
REMARK                            x       y       z     vdW  Elec       q    Type
REMARK                         _______ _______ _______ _____ _____    ______ ____
ROOT
ATOM      1  C   CYS A   1       4.265   0.940  11.328  0.00  0.00    +0.239 C 
ATOM      2  O   CYS A   1       3.571   1.333  12.263  0.00  0.00    -0.274 OA
ATOM      3  N   GLY A   2       5.308   0.134  11.505  0.00  0.00    -0.297 N 
ATOM      4  H   GLY A   2       5.843  -0.200  10.678  0.00  0.00    +0.150 HD
ENDROOT
BRANCH   1   5
ATOM      5  CA  CYS A   1       3.941   1.352   9.890  0.00  0.00    +0.156 C 
BRANCH   5   6
ATOM      6  N   CYS A   1       2.522   1.144   9.654  0.00  0.00    -0.237 NA
ATOM      7  H   CYS A   1       1.929   1.948   9.364  0.00  0.00    +0.142 HD
ENDBRANCH   5   6
BRANCH   5   8
ATOM      8  CB  CYS A   1       4.300   2.822   9.661  0.00  0.00    +0.095 C 
ATOM      9  SG  CYS A   1       6.054   3.198   9.814  0.00  0.00    -0.080 S 
ENDBRANCH   5   8
ENDBRANCH   1   5
BRANCH   3  10
ATOM     10  CA  GLY A   2       5.712  -0.287  12.836  0.00  0.00    +0.163 C 
BRANCH  10  11
ATOM     11  C   GLY A   2       5.051  -1.574  13.298  0.00  0.00    +0.229 C 
ATOM     12  O   GLY A   2       5.233  -2.002  14.440  0.00  0.00    -0.286 OA
ENDBRANCH  10  11
ENDBRANCH   3  10
TORSDOF 5
REMARK  Name = ../refined-set-2016/3zyf/3zyf_pocket.pdb
REMARK  93 active torsions:
REMARK  status: ('A' for Active; 'I' for Inactive)
REMARK    1  A    between atoms: _1  and  _3
REMARK    2  A    between atoms: _3  and  _4
REMARK    3  A    between atoms: _3  and  _6
REMARK    4  A    between atoms: _6  and  _7
REMARK    5  A    between atoms: _9  and  _11
REMARK    6  A    between atoms: _11  and  _12
REMARK    7  A    between atoms: _11  and  _14
REMARK    8  A    between atoms: _12  and  _13
REMARK    9  A    between atoms: _12  and  _23
REMARK   10  A    between atoms: _13  and  CA_239
REMARK   11  A    between atoms: _14  and  _15
REMARK   12  A    between atoms: _20  and  _21
REMARK   13  A    between atoms: _23  and  _25
REMARK   14  A    between atoms: _25  and  _26
REMARK   15  A    between atoms: _29  and  _30
REMARK   16  A    between atoms: _35  and  _37
REMARK   17  A    between atoms: _37  and  _38
REMARK   18  A    between atoms: _37  and  _40
REMARK   19  A    between atoms: _40  and  _41
REMARK   20  A    between atoms: _51  and  _53
REMARK   21  A    between atoms: _53  and  _54
REMARK   22  A    between atoms: _53  and  _56
REMARK   23  A    between atoms: _56  and  _57
REMARK   24  A    between atoms: _60  and  _62
REMARK   25  A    between atoms: _62  and  _63
REMARK   26  A    between atoms: _62  and  _65
REMARK   27  A    between atoms: _65  and  _66
REMARK   28  A    between atoms: _66  and  _67
REMARK   29  A    between atoms: _70  and  _72
REMARK   30  A    between atoms: _72  and  _73
REMARK   31  A    between atoms: _72  and  _75
REMARK   32  A    between atoms: _75  and  _76
REMARK   33  A    between atoms: _82  and  _83
REMARK   34  A    between atoms: _88  and  _90
REMARK   35  A    between atoms: _90  and  _91
REMARK   36  A    between atoms: _90  and  _93
REMARK   37  A    between atoms: _93  and  _94
REMARK   38  A    between atoms: _97  and  _99
REMARK   39  A    between atoms: _99  and  _100
REMARK   40  A    between atoms: _99  and  _102
REMARK   41  A    between atoms: _102  and  _103
REMARK   42  A    between atoms: _103  and  _104
REMARK   43  A    between atoms: _109  and  _111
REMARK   44  A    between atoms: _111  and  _112
REMARK   45  A    between atoms: _114  and  _116
REMARK   46  A    between atoms: _116  and  _117
REMARK   47  A    between atoms: _116  and  _119
REMARK   48  A    between atoms: _119  and  _120
REMARK   49  A    between atoms: _123  and  _125
REMARK   50  A    between atoms: _125  and  _126
REMARK   51  A    between atoms: _125  and  _128
REMARK   52  A    between atoms: _130  and  _132
REMARK   53  A    between atoms: _132  and  _133
REMARK   54  A    between atoms: _135  and  _137
REMARK   55  A    between atoms: _137  and  _138
REMARK   56  A    between atoms: _137  and  _140
REMARK   57  A    between atoms: _140  and  _141
REMARK   58  A    between atoms: _146  and  _147
REMARK   59  A    between atoms: _149  and  _151
REMARK   60  A    between atoms: _151  and  _152
REMARK   61  A    between atoms: _151  and  _154
REMARK   62  A    between atoms: _154  and  _155
REMARK   63  A    between atoms: _160  and  _162
REMARK   64  A    between atoms: _162  and  _163
REMARK   65  A    between atoms: _162  and  _165
REMARK   66  A    between atoms: _165  and  _166
REMARK   67  A    between atoms: _166  and  _168
REMARK   68  A    between atoms: _168  and  CA_239
REMARK   69  A    between atoms: _169  and  _171
REMARK   70  A    between atoms: _171  and  _172
REMARK   71  A    between atoms: _171  and  _174
REMARK   72  A    between atoms: _178  and  _179
REMARK   73  A    between atoms: _184  and  _186
REMARK   74  A    between atoms: _186  and  _187
REMARK   75  A    between atoms: _189  and  _191
REMARK   76  A    between atoms: _191  and  _192
REMARK   77  A    between atoms: _191  and  _194
REMARK   78  A    between atoms: _194  and  _195
REMARK   79  A    between atoms: _198  and  _200
REMARK   80  A    between atoms: _200  and  _201
REMARK   81  A    between atoms: _200  and  _203
REMARK   82  A    between atoms: _203  and  _204
REMARK   83  A    between atoms: _209  and  _210
REMARK   84  A    between atoms: _212  and  _214
REMARK   85  A    between atoms: _214  and  _215
REMARK   86  A    between atoms: _217  and  _219
REMARK   87  A    between atoms: _219  and  _220
REMARK   88  A    between atoms: _219  and  _222
REMARK   89  A    between atoms: _222  and  _223
REMARK   90  A    between atoms: _228  and  _230
REMARK   91  A    between atoms: _230  and  _231
REMARK   92  A    between atoms: _230  and  _233
REMARK   93  A    between atoms: _233  and  _234
REMARK                            x       y       z     vdW  Elec       q    Type
REMARK                         _______ _______ _______ _____ _____    ______ ____
ROOT
ATOM      1  O   HOH     1       9.951  10.626   6.738  0.00  0.00    +0.000 OA
ENDROOT
TORSDOF 0
REMARK  Name = ../refined-set-2016/3zyf/3zyf_pocket.pdb
REMARK  93 active torsions:
REMARK  status: ('A' for Active; 'I' for Inactive)
REMARK    1  A    between atoms: _1  and  _3
REMARK    2  A    between atoms: _3  and  _4
REMARK    3  A    between atoms: _3  and  _6
REMARK    4  A    between atoms: _6  and  _7
REMARK    5  A    between atoms: _9  and  _11
REMARK    6  A    between atoms: _11  and  _12
REMARK    7  A    between atoms: _11  and  _14
REMARK    8  A    between atoms: _12  and  _13
REMARK    9  A    between atoms: _12  and  _23
REMARK   10  A    between atoms: _13  and  CA_239
REMARK   11  A    between atoms: _14  and  _15
REMARK   12  A    between atoms: _20  and  _21
REMARK   13  A    between atoms: _23  and  _25
REMARK   14  A    between atoms: _25  and  _26
REMARK   15  A    between atoms: _29  and  _30
REMARK   16  A    between atoms: _35  and  _37
REMARK   17  A    between atoms: _37  and  _38
REMARK   18  A    between atoms: _37  and  _40
REMARK   19  A    between atoms: _40  and  _41
REMARK   20  A    between atoms: _51  and  _53
REMARK   21  A    between atoms: _53  and  _54
REMARK   22  A    between atoms: _53  and  _56
REMARK   23  A    between atoms: _56  and  _57
REMARK   24  A    between atoms: _60  and  _62
REMARK   25  A    between atoms: _62  and  _63
REMARK   26  A    between atoms: _62  and  _65
REMARK   27  A    between atoms: _65  and  _66
REMARK   28  A    between atoms: _66  and  _67
REMARK   29  A    between atoms: _70  and  _72
REMARK   30  A    between atoms: _72  and  _73
REMARK   31  A    between atoms: _72  and  _75
REMARK   32  A    between atoms: _75  and  _76
REMARK   33  A    between atoms: _82  and  _83
REMARK   34  A    between atoms: _88  and  _90
REMARK   35  A    between atoms: _90  and  _91
REMARK   36  A    between atoms: _90  and  _93
REMARK   37  A    between atoms: _93  and  _94
REMARK   38  A    between atoms: _97  and  _99
REMARK   39  A    between atoms: _99  and  _100
REMARK   40  A    between atoms: _99  and  _102
REMARK   41  A    between atoms: _102  and  _103
REMARK   42  A    between atoms: _103  and  _104
REMARK   43  A    between atoms: _109  and  _111
REMARK   44  A    between atoms: _111  and  _112
REMARK   45  A    between atoms: _114  and  _116
REMARK   46  A    between atoms: _116  and  _117
REMARK   47  A    between atoms: _116  and  _119
REMARK   48  A    between atoms: _119  and  _120
REMARK   49  A    between atoms: _123  and  _125
REMARK   50  A    between atoms: _125  and  _126
REMARK   51  A    between atoms: _125  and  _128
REMARK   52  A    between atoms: _130  and  _132
REMARK   53  A    between atoms: _132  and  _133
REMARK   54  A    between atoms: _135  and  _137
REMARK   55  A    between atoms: _137  and  _138
REMARK   56  A    between atoms: _137  and  _140
REMARK   57  A    between atoms: _140  and  _141
REMARK   58  A    between atoms: _146  and  _147
REMARK   59  A    between atoms: _149  and  _151
REMARK   60  A    between atoms: _151  and  _152
REMARK   61  A    between atoms: _151  and  _154
REMARK   62  A    between atoms: _154  and  _155
REMARK   63  A    between atoms: _160  and  _162
REMARK   64  A    between atoms: _162  and  _163
REMARK   65  A    between atoms: _162  and  _165
REMARK   66  A    between atoms: _165  and  _166
REMARK   67  A    between atoms: _166  and  _168
REMARK   68  A    between atoms: _168  and  CA_239
REMARK   69  A    between atoms: _169  and  _171
REMARK   70  A    between atoms: _171  and  _172
REMARK   71  A    between atoms: _171  and  _174
REMARK   72  A    between atoms: _178  and  _179
REMARK   73  A    between atoms: _184  and  _186
REMARK   74  A    between atoms: _186  and  _187
REMARK   75  A    between atoms: _189  and  _191
REMARK   76  A    between atoms: _191  and  _192
REMARK   77  A    between atoms: _191  and  _194
REMARK   78  A    between atoms: _194  and  _195
REMARK   79  A    between atoms: _198  and  _200
REMARK   80  A    between atoms: _200  and  _201
REMARK   81  A    between atoms: _200  and  _203
REMARK   82  A    between atoms: _203  and  _204
REMARK   83  A    between atoms: _209  and  _210
REMARK   84  A    between atoms: _212  and  _214
REMARK   85  A    between atoms: _214  and  _215
REMARK   86  A    between atoms: _217  and  _219
REMARK   87  A    between atoms: _219  and  _220
REMARK   88  A    between atoms: _219  and  _222
REMARK   89  A    between atoms: _222  and  _223
REMARK   90  A    between atoms: _228  and  _230
REMARK   91  A    between atoms: _230  and  _231
REMARK   92  A    between atoms: _230  and  _233
REMARK   93  A    between atoms: _233  and  _234
REMARK                            x       y       z     vdW  Elec       q    Type
REMARK                         _______ _______ _______ _____ _____    ______ ____
ROOT
ATOM      1  O   HOH     1      10.619   8.343   4.873  0.00  0.00    +0.000 OA
ENDROOT
TORSDOF 0
REMARK  Name = ../refined-set-2016/3zyf/3zyf_pocket.pdb
REMARK  93 active torsions:
REMARK  status: ('A' for Active; 'I' for Inactive)
REMARK    1  A    between atoms: _1  and  _3
REMARK    2  A    between atoms: _3  and  _4
REMARK    3  A    between atoms: _3  and  _6
REMARK    4  A    between atoms: _6  and  _7
REMARK    5  A    between atoms: _9  and  _11
REMARK    6  A    between atoms: _11  and  _12
REMARK    7  A    between atoms: _11  and  _14
REMARK    8  A    between atoms: _12  and  _13
REMARK    9  A    between atoms: _12  and  _23
REMARK   10  A    between atoms: _13  and  CA_239
REMARK   11  A    between atoms: _14  and  _15
REMARK   12  A    between atoms: _20  and  _21
REMARK   13  A    between atoms: _23  and  _25
REMARK   14  A    between atoms: _25  and  _26
REMARK   15  A    between atoms: _29  and  _30
REMARK   16  A    between atoms: _35  and  _37
REMARK   17  A    between atoms: _37  and  _38
REMARK   18  A    between atoms: _37  and  _40
REMARK   19  A    between atoms: _40  and  _41
REMARK   20  A    between atoms: _51  and  _53
REMARK   21  A    between atoms: _53  and  _54
REMARK   22  A    between atoms: _53  and  _56
REMARK   23  A    between atoms: _56  and  _57
REMARK   24  A    between atoms: _60  and  _62
REMARK   25  A    between atoms: _62  and  _63
REMARK   26  A    between atoms: _62  and  _65
REMARK   27  A    between atoms: _65  and  _66
REMARK   28  A    between atoms: _66  and  _67
REMARK   29  A    between atoms: _70  and  _72
REMARK   30  A    between atoms: _72  and  _73
REMARK   31  A    between atoms: _72  and  _75
REMARK   32  A    between atoms: _75  and  _76
REMARK   33  A    between atoms: _82  and  _83
REMARK   34  A    between atoms: _88  and  _90
REMARK   35  A    between atoms: _90  and  _91
REMARK   36  A    between atoms: _90  and  _93
REMARK   37  A    between atoms: _93  and  _94
REMARK   38  A    between atoms: _97  and  _99
REMARK   39  A    between atoms: _99  and  _100
REMARK   40  A    between atoms: _99  and  _102
REMARK   41  A    between atoms: _102  and  _103
REMARK   42  A    between atoms: _103  and  _104
REMARK   43  A    between atoms: _109  and  _111
REMARK   44  A    between atoms: _111  and  _112
REMARK   45  A    between atoms: _114  and  _116
REMARK   46  A    between atoms: _116  and  _117
REMARK   47  A    between atoms: _116  and  _119
REMARK   48  A    between atoms: _119  and  _120
REMARK   49  A    between atoms: _123  and  _125
REMARK   50  A    between atoms: _125  and  _126
REMARK   51  A    between atoms: _125  and  _128
REMARK   52  A    between atoms: _130  and  _132
REMARK   53  A    between atoms: _132  and  _133
REMARK   54  A    between atoms: _135  and  _137
REMARK   55  A    between atoms: _137  and  _138
REMARK   56  A    between atoms: _137  and  _140
REMARK   57  A    between atoms: _140  and  _141
REMARK   58  A    between atoms: _146  and  _147
REMARK   59  A    between atoms: _149  and  _151
REMARK   60  A    between atoms: _151  and  _152
REMARK   61  A    between atoms: _151  and  _154
REMARK   62  A    between atoms: _154  and  _155
REMARK   63  A    between atoms: _160  and  _162
REMARK   64  A    between atoms: _162  and  _163
REMARK   65  A    between atoms: _162  and  _165
REMARK   66  A    between atoms: _165  and  _166
REMARK   67  A    between atoms: _166  and  _168
REMARK   68  A    between atoms: _168  and  CA_239
REMARK   69  A    between atoms: _169  and  _171
REMARK   70  A    between atoms: _171  and  _172
REMARK   71  A    between atoms: _171  and  _174
REMARK   72  A    between atoms: _178  and  _179
REMARK   73  A    between atoms: _184  and  _186
REMARK   74  A    between atoms: _186  and  _187
REMARK   75  A    between atoms: _189  and  _191
REMARK   76  A    between atoms: _191  and  _192
REMARK   77  A    between atoms: _191  and  _194
REMARK   78  A    between atoms: _194  and  _195
REMARK   79  A    between atoms: _198  and  _200
REMARK   80  A    between atoms: _200  and  _201
REMARK   81  A    between atoms: _200  and  _203
REMARK   82  A    between atoms: _203  and  _204
REMARK   83  A    between atoms: _209  and  _210
REMARK   84  A    between atoms: _212  and  _214
REMARK   85  A    between atoms: _214  and  _215
REMARK   86  A    between atoms: _217  and  _219
REMARK   87  A    between atoms: _219  and  _220
REMARK   88  A    between atoms: _219  and  _222
REMARK   89  A    between atoms: _222  and  _223
REMARK   90  A    between atoms: _228  and  _230
REMARK   91  A    between atoms: _230  and  _231
REMARK   92  A    between atoms: _230  and  _233
REMARK   93  A    between atoms: _233  and  _234
REMARK                            x       y       z     vdW  Elec       q    Type
REMARK                         _______ _______ _______ _____ _____    ______ ____
ROOT
ATOM      1  O   HOH     1       4.854   9.810  15.201  0.00  0.00    +0.000 OA
ENDROOT
TORSDOF 0
REMARK  Name = ../refined-set-2016/3zyf/3zyf_pocket.pdb
REMARK  93 active torsions:
REMARK  status: ('A' for Active; 'I' for Inactive)
REMARK    1  A    between atoms: _1  and  _3
REMARK    2  A    between atoms: _3  and  _4
REMARK    3  A    between atoms: _3  and  _6
REMARK    4  A    between atoms: _6  and  _7
REMARK    5  A    between atoms: _9  and  _11
REMARK    6  A    between atoms: _11  and  _12
REMARK    7  A    between atoms: _11  and  _14
REMARK    8  A    between atoms: _12  and  _13
REMARK    9  A    between atoms: _12  and  _23
REMARK   10  A    between atoms: _13  and  CA_239
REMARK   11  A    between atoms: _14  and  _15
REMARK   12  A    between atoms: _20  and  _21
REMARK   13  A    between atoms: _23  and  _25
REMARK   14  A    between atoms: _25  and  _26
REMARK   15  A    between atoms: _29  and  _30
REMARK   16  A    between atoms: _35  and  _37
REMARK   17  A    between atoms: _37  and  _38
REMARK   18  A    between atoms: _37  and  _40
REMARK   19  A    between atoms: _40  and  _41
REMARK   20  A    between atoms: _51  and  _53
REMARK   21  A    between atoms: _53  and  _54
REMARK   22  A    between atoms: _53  and  _56
REMARK   23  A    between atoms: _56  and  _57
REMARK   24  A    between atoms: _60  and  _62
REMARK   25  A    between atoms: _62  and  _63
REMARK   26  A    between atoms: _62  and  _65
REMARK   27  A    between atoms: _65  and  _66
REMARK   28  A    between atoms: _66  and  _67
REMARK   29  A    between atoms: _70  and  _72
REMARK   30  A    between atoms: _72  and  _73
REMARK   31  A    between atoms: _72  and  _75
REMARK   32  A    between atoms: _75  and  _76
REMARK   33  A    between atoms: _82  and  _83
REMARK   34  A    between atoms: _88  and  _90
REMARK   35  A    between atoms: _90  and  _91
REMARK   36  A    between atoms: _90  and  _93
REMARK   37  A    between atoms: _93  and  _94
REMARK   38  A    between atoms: _97  and  _99
REMARK   39  A    between atoms: _99  and  _100
REMARK   40  A    between atoms: _99  and  _102
REMARK   41  A    between atoms: _102  and  _103
REMARK   42  A    between atoms: _103  and  _104
REMARK   43  A    between atoms: _109  and  _111
REMARK   44  A    between atoms: _111  and  _112
REMARK   45  A    between atoms: _114  and  _116
REMARK   46  A    between atoms: _116  and  _117
REMARK   47  A    between atoms: _116  and  _119
REMARK   48  A    between atoms: _119  and  _120
REMARK   49  A    between atoms: _123  and  _125
REMARK   50  A    between atoms: _125  and  _126
REMARK   51  A    between atoms: _125  and  _128
REMARK   52  A    between atoms: _130  and  _132
REMARK   53  A    between atoms: _132  and  _133
REMARK   54  A    between atoms: _135  and  _137
REMARK   55  A    between atoms: _137  and  _138
REMARK   56  A    between atoms: _137  and  _140
REMARK   57  A    between atoms: _140  and  _141
REMARK   58  A    between atoms: _146  and  _147
REMARK   59  A    between atoms: _149  and  _151
REMARK   60  A    between atoms: _151  and  _152
REMARK   61  A    between atoms: _151  and  _154
REMARK   62  A    between atoms: _154  and  _155
REMARK   63  A    between atoms: _160  and  _162
REMARK   64  A    between atoms: _162  and  _163
REMARK   65  A    between atoms: _162  and  _165
REMARK   66  A    between atoms: _165  and  _166
REMARK   67  A    between atoms: _166  and  _168
REMARK   68  A    between atoms: _168  and  CA_239
REMARK   69  A    between atoms: _169  and  _171
REMARK   70  A    between atoms: _171  and  _172
REMARK   71  A    between atoms: _171  and  _174
REMARK   72  A    between atoms: _178  and  _179
REMARK   73  A    between atoms: _184  and  _186
REMARK   74  A    between atoms: _186  and  _187
REMARK   75  A    between atoms: _189  and  _191
REMARK   76  A    between atoms: _191  and  _192
REMARK   77  A    between atoms: _191  and  _194
REMARK   78  A    between atoms: _194  and  _195
REMARK   79  A    between atoms: _198  and  _200
REMARK   80  A    between atoms: _200  and  _201
REMARK   81  A    between atoms: _200  and  _203
REMARK   82  A    between atoms: _203  and  _204
REMARK   83  A    between atoms: _209  and  _210
REMARK   84  A    between atoms: _212  and  _214
REMARK   85  A    between atoms: _214  and  _215
REMARK   86  A    between atoms: _217  and  _219
REMARK   87  A    between atoms: _219  and  _220
REMARK   88  A    between atoms: _219  and  _222
REMARK   89  A    between atoms: _222  and  _223
REMARK   90  A    between atoms: _228  and  _230
REMARK   91  A    between atoms: _230  and  _231
REMARK   92  A    between atoms: _230  and  _233
REMARK   93  A    between atoms: _233  and  _234
REMARK                            x       y       z     vdW  Elec       q    Type
REMARK                         _______ _______ _______ _____ _____    ______ ____
ROOT
ATOM      1  O   HOH     1      11.489   9.702  13.056  0.00  0.00    +0.000 OA
ENDROOT
TORSDOF 0
REMARK  Name = ../refined-set-2016/3zyf/3zyf_pocket.pdb
REMARK  93 active torsions:
REMARK  status: ('A' for Active; 'I' for Inactive)
REMARK    1  A    between atoms: _1  and  _3
REMARK    2  A    between atoms: _3  and  _4
REMARK    3  A    between atoms: _3  and  _6
REMARK    4  A    between atoms: _6  and  _7
REMARK    5  A    between atoms: _9  and  _11
REMARK    6  A    between atoms: _11  and  _12
REMARK    7  A    between atoms: _11  and  _14
REMARK    8  A    between atoms: _12  and  _13
REMARK    9  A    between atoms: _12  and  _23
REMARK   10  A    between atoms: _13  and  CA_239
REMARK   11  A    between atoms: _14  and  _15
REMARK   12  A    between atoms: _20  and  _21
REMARK   13  A    between atoms: _23  and  _25
REMARK   14  A    between atoms: _25  and  _26
REMARK   15  A    between atoms: _29  and  _30
REMARK   16  A    between atoms: _35  and  _37
REMARK   17  A    between atoms: _37  and  _38
REMARK   18  A    between atoms: _37  and  _40
REMARK   19  A    between atoms: _40  and  _41
REMARK   20  A    between atoms: _51  and  _53
REMARK   21  A    between atoms: _53  and  _54
REMARK   22  A    between atoms: _53  and  _56
REMARK   23  A    between atoms: _56  and  _57
REMARK   24  A    between atoms: _60  and  _62
REMARK   25  A    between atoms: _62  and  _63
REMARK   26  A    between atoms: _62  and  _65
REMARK   27  A    between atoms: _65  and  _66
REMARK   28  A    between atoms: _66  and  _67
REMARK   29  A    between atoms: _70  and  _72
REMARK   30  A    between atoms: _72  and  _73
REMARK   31  A    between atoms: _72  and  _75
REMARK   32  A    between atoms: _75  and  _76
REMARK   33  A    between atoms: _82  and  _83
REMARK   34  A    between atoms: _88  and  _90
REMARK   35  A    between atoms: _90  and  _91
REMARK   36  A    between atoms: _90  and  _93
REMARK   37  A    between atoms: _93  and  _94
REMARK   38  A    between atoms: _97  and  _99
REMARK   39  A    between atoms: _99  and  _100
REMARK   40  A    between atoms: _99  and  _102
REMARK   41  A    between atoms: _102  and  _103
REMARK   42  A    between atoms: _103  and  _104
REMARK   43  A    between atoms: _109  and  _111
REMARK   44  A    between atoms: _111  and  _112
REMARK   45  A    between atoms: _114  and  _116
REMARK   46  A    between atoms: _116  and  _117
REMARK   47  A    between atoms: _116  and  _119
REMARK   48  A    between atoms: _119  and  _120
REMARK   49  A    between atoms: _123  and  _125
REMARK   50  A    between atoms: _125  and  _126
REMARK   51  A    between atoms: _125  and  _128
REMARK   52  A    between atoms: _130  and  _132
REMARK   53  A    between atoms: _132  and  _133
REMARK   54  A    between atoms: _135  and  _137
REMARK   55  A    between atoms: _137  and  _138
REMARK   56  A    between atoms: _137  and  _140
REMARK   57  A    between atoms: _140  and  _141
REMARK   58  A    between atoms: _146  and  _147
REMARK   59  A    between atoms: _149  and  _151
REMARK   60  A    between atoms: _151  and  _152
REMARK   61  A    between atoms: _151  and  _154
REMARK   62  A    between atoms: _154  and  _155
REMARK   63  A    between atoms: _160  and  _162
REMARK   64  A    between atoms: _162  and  _163
REMARK   65  A    between atoms: _162  and  _165
REMARK   66  A    between atoms: _165  and  _166
REMARK   67  A    between atoms: _166  and  _168
REMARK   68  A    between atoms: _168  and  CA_239
REMARK   69  A    between atoms: _169  and  _171
REMARK   70  A    between atoms: _171  and  _172
REMARK   71  A    between atoms: _171  and  _174
REMARK   72  A    between atoms: _178  and  _179
REMARK   73  A    between atoms: _184  and  _186
REMARK   74  A    between atoms: _186  and  _187
REMARK   75  A    between atoms: _189  and  _191
REMARK   76  A    between atoms: _191  and  _192
REMARK   77  A    between atoms: _191  and  _194
REMARK   78  A    between atoms: _194  and  _195
REMARK   79  A    between atoms: _198  and  _200
REMARK   80  A    between atoms: _200  and  _201
REMARK   81  A    between atoms: _200  and  _203
REMARK   82  A    between atoms: _203  and  _204
REMARK   83  A    between atoms: _209  and  _210
REMARK   84  A    between atoms: _212  and  _214
REMARK   85  A    between atoms: _214  and  _215
REMARK   86  A    between atoms: _217  and  _219
REMARK   87  A    between atoms: _219  and  _220
REMARK   88  A    between atoms: _219  and  _222
REMARK   89  A    between atoms: _222  and  _223
REMARK   90  A    between atoms: _228  and  _230
REMARK   91  A    between atoms: _230  and  _231
REMARK   92  A    between atoms: _230  and  _233
REMARK   93  A    between atoms: _233  and  _234
REMARK                            x       y       z     vdW  Elec       q    Type
REMARK                         _______ _______ _______ _____ _____    ______ ____
ROOT
ATOM      1  O   HOH     1      10.727  11.377  18.637  0.00  0.00    +0.000 OA
ENDROOT
TORSDOF 0
REMARK  Name = ../refined-set-2016/3zyf/3zyf_pocket.pdb
REMARK  93 active torsions:
REMARK  status: ('A' for Active; 'I' for Inactive)
REMARK    1  A    between atoms: _1  and  _3
REMARK    2  A    between atoms: _3  and  _4
REMARK    3  A    between atoms: _3  and  _6
REMARK    4  A    between atoms: _6  and  _7
REMARK    5  A    between atoms: _9  and  _11
REMARK    6  A    between atoms: _11  and  _12
REMARK    7  A    between atoms: _11  and  _14
REMARK    8  A    between atoms: _12  and  _13
REMARK    9  A    between atoms: _12  and  _23
REMARK   10  A    between atoms: _13  and  CA_239
REMARK   11  A    between atoms: _14  and  _15
REMARK   12  A    between atoms: _20  and  _21
REMARK   13  A    between atoms: _23  and  _25
REMARK   14  A    between atoms: _25  and  _26
REMARK   15  A    between atoms: _29  and  _30
REMARK   16  A    between atoms: _35  and  _37
REMARK   17  A    between atoms: _37  and  _38
REMARK   18  A    between atoms: _37  and  _40
REMARK   19  A    between atoms: _40  and  _41
REMARK   20  A    between atoms: _51  and  _53
REMARK   21  A    between atoms: _53  and  _54
REMARK   22  A    between atoms: _53  and  _56
REMARK   23  A    between atoms: _56  and  _57
REMARK   24  A    between atoms: _60  and  _62
REMARK   25  A    between atoms: _62  and  _63
REMARK   26  A    between atoms: _62  and  _65
REMARK   27  A    between atoms: _65  and  _66
REMARK   28  A    between atoms: _66  and  _67
REMARK   29  A    between atoms: _70  and  _72
REMARK   30  A    between atoms: _72  and  _73
REMARK   31  A    between atoms: _72  and  _75
REMARK   32  A    between atoms: _75  and  _76
REMARK   33  A    between atoms: _82  and  _83
REMARK   34  A    between atoms: _88  and  _90
REMARK   35  A    between atoms: _90  and  _91
REMARK   36  A    between atoms: _90  and  _93
REMARK   37  A    between atoms: _93  and  _94
REMARK   38  A    between atoms: _97  and  _99
REMARK   39  A    between atoms: _99  and  _100
REMARK   40  A    between atoms: _99  and  _102
REMARK   41  A    between atoms: _102  and  _103
REMARK   42  A    between atoms: _103  and  _104
REMARK   43  A    between atoms: _109  and  _111
REMARK   44  A    between atoms: _111  and  _112
REMARK   45  A    between atoms: _114  and  _116
REMARK   46  A    between atoms: _116  and  _117
REMARK   47  A    between atoms: _116  and  _119
REMARK   48  A    between atoms: _119  and  _120
REMARK   49  A    between atoms: _123  and  _125
REMARK   50  A    between atoms: _125  and  _126
REMARK   51  A    between atoms: _125  and  _128
REMARK   52  A    between atoms: _130  and  _132
REMARK   53  A    between atoms: _132  and  _133
REMARK   54  A    between atoms: _135  and  _137
REMARK   55  A    between atoms: _137  and  _138
REMARK   56  A    between atoms: _137  and  _140
REMARK   57  A    between atoms: _140  and  _141
REMARK   58  A    between atoms: _146  and  _147
REMARK   59  A    between atoms: _149  and  _151
REMARK   60  A    between atoms: _151  and  _152
REMARK   61  A    between atoms: _151  and  _154
REMARK   62  A    between atoms: _154  and  _155
REMARK   63  A    between atoms: _160  and  _162
REMARK   64  A    between atoms: _162  and  _163
REMARK   65  A    between atoms: _162  and  _165
REMARK   66  A    between atoms: _165  and  _166
REMARK   67  A    between atoms: _166  and  _168
REMARK   68  A    between atoms: _168  and  CA_239
REMARK   69  A    between atoms: _169  and  _171
REMARK   70  A    between atoms: _171  and  _172
REMARK   71  A    between atoms: _171  and  _174
REMARK   72  A    between atoms: _178  and  _179
REMARK   73  A    between atoms: _184  and  _186
REMARK   74  A    between atoms: _186  and  _187
REMARK   75  A    between atoms: _189  and  _191
REMARK   76  A    between atoms: _191  and  _192
REMARK   77  A    between atoms: _191  and  _194
REMARK   78  A    between atoms: _194  and  _195
REMARK   79  A    between atoms: _198  and  _200
REMARK   80  A    between atoms: _200  and  _201
REMARK   81  A    between atoms: _200  and  _203
REMARK   82  A    between atoms: _203  and  _204
REMARK   83  A    between atoms: _209  and  _210
REMARK   84  A    between atoms: _212  and  _214
REMARK   85  A    between atoms: _214  and  _215
REMARK   86  A    between atoms: _217  and  _219
REMARK   87  A    between atoms: _219  and  _220
REMARK   88  A    between atoms: _219  and  _222
REMARK   89  A    between atoms: _222  and  _223
REMARK   90  A    between atoms: _228  and  _230
REMARK   91  A    between atoms: _230  and  _231
REMARK   92  A    between atoms: _230  and  _233
REMARK   93  A    between atoms: _233  and  _234
REMARK                            x       y       z     vdW  Elec       q    Type
REMARK                         _______ _______ _______ _____ _____    ______ ____
ROOT
ATOM      1  O   HOH     1       4.705  10.177  18.102  0.00  0.00    +0.000 OA
ENDROOT
TORSDOF 0
REMARK  Name = ../refined-set-2016/3zyf/3zyf_pocket.pdb
REMARK  93 active torsions:
REMARK  status: ('A' for Active; 'I' for Inactive)
REMARK    1  A    between atoms: _1  and  _3
REMARK    2  A    between atoms: _3  and  _4
REMARK    3  A    between atoms: _3  and  _6
REMARK    4  A    between atoms: _6  and  _7
REMARK    5  A    between atoms: _9  and  _11
REMARK    6  A    between atoms: _11  and  _12
REMARK    7  A    between atoms: _11  and  _14
REMARK    8  A    between atoms: _12  and  _13
REMARK    9  A    between atoms: _12  and  _23
REMARK   10  A    between atoms: _13  and  CA_239
REMARK   11  A    between atoms: _14  and  _15
REMARK   12  A    between atoms: _20  and  _21
REMARK   13  A    between atoms: _23  and  _25
REMARK   14  A    between atoms: _25  and  _26
REMARK   15  A    between atoms: _29  and  _30
REMARK   16  A    between atoms: _35  and  _37
REMARK   17  A    between atoms: _37  and  _38
REMARK   18  A    between atoms: _37  and  _40
REMARK   19  A    between atoms: _40  and  _41
REMARK   20  A    between atoms: _51  and  _53
REMARK   21  A    between atoms: _53  and  _54
REMARK   22  A    between atoms: _53  and  _56
REMARK   23  A    between atoms: _56  and  _57
REMARK   24  A    between atoms: _60  and  _62
REMARK   25  A    between atoms: _62  and  _63
REMARK   26  A    between atoms: _62  and  _65
REMARK   27  A    between atoms: _65  and  _66
REMARK   28  A    between atoms: _66  and  _67
REMARK   29  A    between atoms: _70  and  _72
REMARK   30  A    between atoms: _72  and  _73
REMARK   31  A    between atoms: _72  and  _75
REMARK   32  A    between atoms: _75  and  _76
REMARK   33  A    between atoms: _82  and  _83
REMARK   34  A    between atoms: _88  and  _90
REMARK   35  A    between atoms: _90  and  _91
REMARK   36  A    between atoms: _90  and  _93
REMARK   37  A    between atoms: _93  and  _94
REMARK   38  A    between atoms: _97  and  _99
REMARK   39  A    between atoms: _99  and  _100
REMARK   40  A    between atoms: _99  and  _102
REMARK   41  A    between atoms: _102  and  _103
REMARK   42  A    between atoms: _103  and  _104
REMARK   43  A    between atoms: _109  and  _111
REMARK   44  A    between atoms: _111  and  _112
REMARK   45  A    between atoms: _114  and  _116
REMARK   46  A    between atoms: _116  and  _117
REMARK   47  A    between atoms: _116  and  _119
REMARK   48  A    between atoms: _119  and  _120
REMARK   49  A    between atoms: _123  and  _125
REMARK   50  A    between atoms: _125  and  _126
REMARK   51  A    between atoms: _125  and  _128
REMARK   52  A    between atoms: _130  and  _132
REMARK   53  A    between atoms: _132  and  _133
REMARK   54  A    between atoms: _135  and  _137
REMARK   55  A    between atoms: _137  and  _138
REMARK   56  A    between atoms: _137  and  _140
REMARK   57  A    between atoms: _140  and  _141
REMARK   58  A    between atoms: _146  and  _147
REMARK   59  A    between atoms: _149  and  _151
REMARK   60  A    between atoms: _151  and  _152
REMARK   61  A    between atoms: _151  and  _154
REMARK   62  A    between atoms: _154  and  _155
REMARK   63  A    between atoms: _160  and  _162
REMARK   64  A    between atoms: _162  and  _163
REMARK   65  A    between atoms: _162  and  _165
REMARK   66  A    between atoms: _165  and  _166
REMARK   67  A    between atoms: _166  and  _168
REMARK   68  A    between atoms: _168  and  CA_239
REMARK   69  A    between atoms: _169  and  _171
REMARK   70  A    between atoms: _171  and  _172
REMARK   71  A    between atoms: _171  and  _174
REMARK   72  A    between atoms: _178  and  _179
REMARK   73  A    between atoms: _184  and  _186
REMARK   74  A    between atoms: _186  and  _187
REMARK   75  A    between atoms: _189  and  _191
REMARK   76  A    between atoms: _191  and  _192
REMARK   77  A    between atoms: _191  and  _194
REMARK   78  A    between atoms: _194  and  _195
REMARK   79  A    between atoms: _198  and  _200
REMARK   80  A    between atoms: _200  and  _201
REMARK   81  A    between atoms: _200  and  _203
REMARK   82  A    between atoms: _203  and  _204
REMARK   83  A    between atoms: _209  and  _210
REMARK   84  A    between atoms: _212  and  _214
REMARK   85  A    between atoms: _214  and  _215
REMARK   86  A    between atoms: _217  and  _219
REMARK   87  A    between atoms: _219  and  _220
REMARK   88  A    between atoms: _219  and  _222
REMARK   89  A    between atoms: _222  and  _223
REMARK   90  A    between atoms: _228  and  _230
REMARK   91  A    between atoms: _230  and  _231
REMARK   92  A    between atoms: _230  and  _233
REMARK   93  A    between atoms: _233  and  _234
REMARK                            x       y       z     vdW  Elec       q    Type
REMARK                         _______ _______ _______ _____ _____    ______ ____
ROOT
ATOM      1  O   HOH     1       0.908   3.184   9.044  0.00  0.00    +0.000 OA
ENDROOT
TORSDOF 0
REMARK  Name = ../refined-set-2016/3zyf/3zyf_pocket.pdb
REMARK  93 active torsions:
REMARK  status: ('A' for Active; 'I' for Inactive)
REMARK    1  A    between atoms: _1  and  _3
REMARK    2  A    between atoms: _3  and  _4
REMARK    3  A    between atoms: _3  and  _6
REMARK    4  A    between atoms: _6  and  _7
REMARK    5  A    between atoms: _9  and  _11
REMARK    6  A    between atoms: _11  and  _12
REMARK    7  A    between atoms: _11  and  _14
REMARK    8  A    between atoms: _12  and  _13
REMARK    9  A    between atoms: _12  and  _23
REMARK   10  A    between atoms: _13  and  CA_239
REMARK   11  A    between atoms: _14  and  _15
REMARK   12  A    between atoms: _20  and  _21
REMARK   13  A    between atoms: _23  and  _25
REMARK   14  A    between atoms: _25  and  _26
REMARK   15  A    between atoms: _29  and  _30
REMARK   16  A    between atoms: _35  and  _37
REMARK   17  A    between atoms: _37  and  _38
REMARK   18  A    between atoms: _37  and  _40
REMARK   19  A    between atoms: _40  and  _41
REMARK   20  A    between atoms: _51  and  _53
REMARK   21  A    between atoms: _53  and  _54
REMARK   22  A    between atoms: _53  and  _56
REMARK   23  A    between atoms: _56  and  _57
REMARK   24  A    between atoms: _60  and  _62
REMARK   25  A    between atoms: _62  and  _63
REMARK   26  A    between atoms: _62  and  _65
REMARK   27  A    between atoms: _65  and  _66
REMARK   28  A    between atoms: _66  and  _67
REMARK   29  A    between atoms: _70  and  _72
REMARK   30  A    between atoms: _72  and  _73
REMARK   31  A    between atoms: _72  and  _75
REMARK   32  A    between atoms: _75  and  _76
REMARK   33  A    between atoms: _82  and  _83
REMARK   34  A    between atoms: _88  and  _90
REMARK   35  A    between atoms: _90  and  _91
REMARK   36  A    between atoms: _90  and  _93
REMARK   37  A    between atoms: _93  and  _94
REMARK   38  A    between atoms: _97  and  _99
REMARK   39  A    between atoms: _99  and  _100
REMARK   40  A    between atoms: _99  and  _102
REMARK   41  A    between atoms: _102  and  _103
REMARK   42  A    between atoms: _103  and  _104
REMARK   43  A    between atoms: _109  and  _111
REMARK   44  A    between atoms: _111  and  _112
REMARK   45  A    between atoms: _114  and  _116
REMARK   46  A    between atoms: _116  and  _117
REMARK   47  A    between atoms: _116  and  _119
REMARK   48  A    between atoms: _119  and  _120
REMARK   49  A    between atoms: _123  and  _125
REMARK   50  A    between atoms: _125  and  _126
REMARK   51  A    between atoms: _125  and  _128
REMARK   52  A    between atoms: _130  and  _132
REMARK   53  A    between atoms: _132  and  _133
REMARK   54  A    between atoms: _135  and  _137
REMARK   55  A    between atoms: _137  and  _138
REMARK   56  A    between atoms: _137  and  _140
REMARK   57  A    between atoms: _140  and  _141
REMARK   58  A    between atoms: _146  and  _147
REMARK   59  A    between atoms: _149  and  _151
REMARK   60  A    between atoms: _151  and  _152
REMARK   61  A    between atoms: _151  and  _154
REMARK   62  A    between atoms: _154  and  _155
REMARK   63  A    between atoms: _160  and  _162
REMARK   64  A    between atoms: _162  and  _163
REMARK   65  A    between atoms: _162  and  _165
REMARK   66  A    between atoms: _165  and  _166
REMARK   67  A    between atoms: _166  and  _168
REMARK   68  A    between atoms: _168  and  CA_239
REMARK   69  A    between atoms: _169  and  _171
REMARK   70  A    between atoms: _171  and  _172
REMARK   71  A    between atoms: _171  and  _174
REMARK   72  A    between atoms: _178  and  _179
REMARK   73  A    between atoms: _184  and  _186
REMARK   74  A    between atoms: _186  and  _187
REMARK   75  A    between atoms: _189  and  _191
REMARK   76  A    between atoms: _191  and  _192
REMARK   77  A    between atoms: _191  and  _194
REMARK   78  A    between atoms: _194  and  _195
REMARK   79  A    between atoms: _198  and  _200
REMARK   80  A    between atoms: _200  and  _201
REMARK   81  A    between atoms: _200  and  _203
REMARK   82  A    between atoms: _203  and  _204
REMARK   83  A    between atoms: _209  and  _210
REMARK   84  A    between atoms: _212  and  _214
REMARK   85  A    between atoms: _214  and  _215
REMARK   86  A    between atoms: _217  and  _219
REMARK   87  A    between atoms: _219  and  _220
REMARK   88  A    between atoms: _219  and  _222
REMARK   89  A    between atoms: _222  and  _223
REMARK   90  A    between atoms: _228  and  _230
REMARK   91  A    between atoms: _230  and  _231
REMARK   92  A    between atoms: _230  and  _233
REMARK   93  A    between atoms: _233  and  _234
REMARK                            x       y       z     vdW  Elec       q    Type
REMARK                         _______ _______ _______ _____ _____    ______ ____
ROOT
ATOM      1  O   HOH     1       1.890   9.235  14.707  0.00  0.00    +0.000 OA
ENDROOT
TORSDOF 0
REMARK  Name = ../refined-set-2016/3zyf/3zyf_pocket.pdb
REMARK  93 active torsions:
REMARK  status: ('A' for Active; 'I' for Inactive)
REMARK    1  A    between atoms: _1  and  _3
REMARK    2  A    between atoms: _3  and  _4
REMARK    3  A    between atoms: _3  and  _6
REMARK    4  A    between atoms: _6  and  _7
REMARK    5  A    between atoms: _9  and  _11
REMARK    6  A    between atoms: _11  and  _12
REMARK    7  A    between atoms: _11  and  _14
REMARK    8  A    between atoms: _12  and  _13
REMARK    9  A    between atoms: _12  and  _23
REMARK   10  A    between atoms: _13  and  CA_239
REMARK   11  A    between atoms: _14  and  _15
REMARK   12  A    between atoms: _20  and  _21
REMARK   13  A    between atoms: _23  and  _25
REMARK   14  A    between atoms: _25  and  _26
REMARK   15  A    between atoms: _29  and  _30
REMARK   16  A    between atoms: _35  and  _37
REMARK   17  A    between atoms: _37  and  _38
REMARK   18  A    between atoms: _37  and  _40
REMARK   19  A    between atoms: _40  and  _41
REMARK   20  A    between atoms: _51  and  _53
REMARK   21  A    between atoms: _53  and  _54
REMARK   22  A    between atoms: _53  and  _56
REMARK   23  A    between atoms: _56  and  _57
REMARK   24  A    between atoms: _60  and  _62
REMARK   25  A    between atoms: _62  and  _63
REMARK   26  A    between atoms: _62  and  _65
REMARK   27  A    between atoms: _65  and  _66
REMARK   28  A    between atoms: _66  and  _67
REMARK   29  A    between atoms: _70  and  _72
REMARK   30  A    between atoms: _72  and  _73
REMARK   31  A    between atoms: _72  and  _75
REMARK   32  A    between atoms: _75  and  _76
REMARK   33  A    between atoms: _82  and  _83
REMARK   34  A    between atoms: _88  and  _90
REMARK   35  A    between atoms: _90  and  _91
REMARK   36  A    between atoms: _90  and  _93
REMARK   37  A    between atoms: _93  and  _94
REMARK   38  A    between atoms: _97  and  _99
REMARK   39  A    between atoms: _99  and  _100
REMARK   40  A    between atoms: _99  and  _102
REMARK   41  A    between atoms: _102  and  _103
REMARK   42  A    between atoms: _103  and  _104
REMARK   43  A    between atoms: _109  and  _111
REMARK   44  A    between atoms: _111  and  _112
REMARK   45  A    between atoms: _114  and  _116
REMARK   46  A    between atoms: _116  and  _117
REMARK   47  A    between atoms: _116  and  _119
REMARK   48  A    between atoms: _119  and  _120
REMARK   49  A    between atoms: _123  and  _125
REMARK   50  A    between atoms: _125  and  _126
REMARK   51  A    between atoms: _125  and  _128
REMARK   52  A    between atoms: _130  and  _132
REMARK   53  A    between atoms: _132  and  _133
REMARK   54  A    between atoms: _135  and  _137
REMARK   55  A    between atoms: _137  and  _138
REMARK   56  A    between atoms: _137  and  _140
REMARK   57  A    between atoms: _140  and  _141
REMARK   58  A    between atoms: _146  and  _147
REMARK   59  A    between atoms: _149  and  _151
REMARK   60  A    between atoms: _151  and  _152
REMARK   61  A    between atoms: _151  and  _154
REMARK   62  A    between atoms: _154  and  _155
REMARK   63  A    between atoms: _160  and  _162
REMARK   64  A    between atoms: _162  and  _163
REMARK   65  A    between atoms: _162  and  _165
REMARK   66  A    between atoms: _165  and  _166
REMARK   67  A    between atoms: _166  and  _168
REMARK   68  A    between atoms: _168  and  CA_239
REMARK   69  A    between atoms: _169  and  _171
REMARK   70  A    between atoms: _171  and  _172
REMARK   71  A    between atoms: _171  and  _174
REMARK   72  A    between atoms: _178  and  _179
REMARK   73  A    between atoms: _184  and  _186
REMARK   74  A    between atoms: _186  and  _187
REMARK   75  A    between atoms: _189  and  _191
REMARK   76  A    between atoms: _191  and  _192
REMARK   77  A    between atoms: _191  and  _194
REMARK   78  A    between atoms: _194  and  _195
REMARK   79  A    between atoms: _198  and  _200
REMARK   80  A    between atoms: _200  and  _201
REMARK   81  A    between atoms: _200  and  _203
REMARK   82  A    between atoms: _203  and  _204
REMARK   83  A    between atoms: _209  and  _210
REMARK   84  A    between atoms: _212  and  _214
REMARK   85  A    between atoms: _214  and  _215
REMARK   86  A    between atoms: _217  and  _219
REMARK   87  A    between atoms: _219  and  _220
REMARK   88  A    between atoms: _219  and  _222
REMARK   89  A    between atoms: _222  and  _223
REMARK   90  A    between atoms: _228  and  _230
REMARK   91  A    between atoms: _230  and  _231
REMARK   92  A    between atoms: _230  and  _233
REMARK   93  A    between atoms: _233  and  _234
REMARK                            x       y       z     vdW  Elec       q    Type
REMARK                         _______ _______ _______ _____ _____    ______ ____
ROOT
ATOM      1  O   HOH     1       5.038   4.830   6.119  0.00  0.00    +0.000 OA
ENDROOT
TORSDOF 0
REMARK  Name = ../refined-set-2016/3zyf/3zyf_pocket.pdb
REMARK  93 active torsions:
REMARK  status: ('A' for Active; 'I' for Inactive)
REMARK    1  A    between atoms: _1  and  _3
REMARK    2  A    between atoms: _3  and  _4
REMARK    3  A    between atoms: _3  and  _6
REMARK    4  A    between atoms: _6  and  _7
REMARK    5  A    between atoms: _9  and  _11
REMARK    6  A    between atoms: _11  and  _12
REMARK    7  A    between atoms: _11  and  _14
REMARK    8  A    between atoms: _12  and  _13
REMARK    9  A    between atoms: _12  and  _23
REMARK   10  A    between atoms: _13  and  CA_239
REMARK   11  A    between atoms: _14  and  _15
REMARK   12  A    between atoms: _20  and  _21
REMARK   13  A    between atoms: _23  and  _25
REMARK   14  A    between atoms: _25  and  _26
REMARK   15  A    between atoms: _29  and  _30
REMARK   16  A    between atoms: _35  and  _37
REMARK   17  A    between atoms: _37  and  _38
REMARK   18  A    between atoms: _37  and  _40
REMARK   19  A    between atoms: _40  and  _41
REMARK   20  A    between atoms: _51  and  _53
REMARK   21  A    between atoms: _53  and  _54
REMARK   22  A    between atoms: _53  and  _56
REMARK   23  A    between atoms: _56  and  _57
REMARK   24  A    between atoms: _60  and  _62
REMARK   25  A    between atoms: _62  and  _63
REMARK   26  A    between atoms: _62  and  _65
REMARK   27  A    between atoms: _65  and  _66
REMARK   28  A    between atoms: _66  and  _67
REMARK   29  A    between atoms: _70  and  _72
REMARK   30  A    between atoms: _72  and  _73
REMARK   31  A    between atoms: _72  and  _75
REMARK   32  A    between atoms: _75  and  _76
REMARK   33  A    between atoms: _82  and  _83
REMARK   34  A    between atoms: _88  and  _90
REMARK   35  A    between atoms: _90  and  _91
REMARK   36  A    between atoms: _90  and  _93
REMARK   37  A    between atoms: _93  and  _94
REMARK   38  A    between atoms: _97  and  _99
REMARK   39  A    between atoms: _99  and  _100
REMARK   40  A    between atoms: _99  and  _102
REMARK   41  A    between atoms: _102  and  _103
REMARK   42  A    between atoms: _103  and  _104
REMARK   43  A    between atoms: _109  and  _111
REMARK   44  A    between atoms: _111  and  _112
REMARK   45  A    between atoms: _114  and  _116
REMARK   46  A    between atoms: _116  and  _117
REMARK   47  A    between atoms: _116  and  _119
REMARK   48  A    between atoms: _119  and  _120
REMARK   49  A    between atoms: _123  and  _125
REMARK   50  A    between atoms: _125  and  _126
REMARK   51  A    between atoms: _125  and  _128
REMARK   52  A    between atoms: _130  and  _132
REMARK   53  A    between atoms: _132  and  _133
REMARK   54  A    between atoms: _135  and  _137
REMARK   55  A    between atoms: _137  and  _138
REMARK   56  A    between atoms: _137  and  _140
REMARK   57  A    between atoms: _140  and  _141
REMARK   58  A    between atoms: _146  and  _147
REMARK   59  A    between atoms: _149  and  _151
REMARK   60  A    between atoms: _151  and  _152
REMARK   61  A    between atoms: _151  and  _154
REMARK   62  A    between atoms: _154  and  _155
REMARK   63  A    between atoms: _160  and  _162
REMARK   64  A    between atoms: _162  and  _163
REMARK   65  A    between atoms: _162  and  _165
REMARK   66  A    between atoms: _165  and  _166
REMARK   67  A    between atoms: _166  and  _168
REMARK   68  A    between atoms: _168  and  CA_239
REMARK   69  A    between atoms: _169  and  _171
REMARK   70  A    between atoms: _171  and  _172
REMARK   71  A    between atoms: _171  and  _174
REMARK   72  A    between atoms: _178  and  _179
REMARK   73  A    between atoms: _184  and  _186
REMARK   74  A    between atoms: _186  and  _187
REMARK   75  A    between atoms: _189  and  _191
REMARK   76  A    between atoms: _191  and  _192
REMARK   77  A    between atoms: _191  and  _194
REMARK   78  A    between atoms: _194  and  _195
REMARK   79  A    between atoms: _198  and  _200
REMARK   80  A    between atoms: _200  and  _201
REMARK   81  A    between atoms: _200  and  _203
REMARK   82  A    between atoms: _203  and  _204
REMARK   83  A    between atoms: _209  and  _210
REMARK   84  A    between atoms: _212  and  _214
REMARK   85  A    between atoms: _214  and  _215
REMARK   86  A    between atoms: _217  and  _219
REMARK   87  A    between atoms: _219  and  _220
REMARK   88  A    between atoms: _219  and  _222
REMARK   89  A    between atoms: _222  and  _223
REMARK   90  A    between atoms: _228  and  _230
REMARK   91  A    between atoms: _230  and  _231
REMARK   92  A    between atoms: _230  and  _233
REMARK   93  A    between atoms: _233  and  _234
REMARK                            x       y       z     vdW  Elec       q    Type
REMARK                         _______ _______ _______ _____ _____    ______ ____
ROOT
ATOM      1  O   HOH     1       7.924  11.387   5.582  0.00  0.00    +0.000 OA
ENDROOT
TORSDOF 0
REMARK  Name = ../refined-set-2016/3zyf/3zyf_pocket.pdb
REMARK  93 active torsions:
REMARK  status: ('A' for Active; 'I' for Inactive)
REMARK    1  A    between atoms: _1  and  _3
REMARK    2  A    between atoms: _3  and  _4
REMARK    3  A    between atoms: _3  and  _6
REMARK    4  A    between atoms: _6  and  _7
REMARK    5  A    between atoms: _9  and  _11
REMARK    6  A    between atoms: _11  and  _12
REMARK    7  A    between atoms: _11  and  _14
REMARK    8  A    between atoms: _12  and  _13
REMARK    9  A    between atoms: _12  and  _23
REMARK   10  A    between atoms: _13  and  CA_239
REMARK   11  A    between atoms: _14  and  _15
REMARK   12  A    between atoms: _20  and  _21
REMARK   13  A    between atoms: _23  and  _25
REMARK   14  A    between atoms: _25  and  _26
REMARK   15  A    between atoms: _29  and  _30
REMARK   16  A    between atoms: _35  and  _37
REMARK   17  A    between atoms: _37  and  _38
REMARK   18  A    between atoms: _37  and  _40
REMARK   19  A    between atoms: _40  and  _41
REMARK   20  A    between atoms: _51  and  _53
REMARK   21  A    between atoms: _53  and  _54
REMARK   22  A    between atoms: _53  and  _56
REMARK   23  A    between atoms: _56  and  _57
REMARK   24  A    between atoms: _60  and  _62
REMARK   25  A    between atoms: _62  and  _63
REMARK   26  A    between atoms: _62  and  _65
REMARK   27  A    between atoms: _65  and  _66
REMARK   28  A    between atoms: _66  and  _67
REMARK   29  A    between atoms: _70  and  _72
REMARK   30  A    between atoms: _72  and  _73
REMARK   31  A    between atoms: _72  and  _75
REMARK   32  A    between atoms: _75  and  _76
REMARK   33  A    between atoms: _82  and  _83
REMARK   34  A    between atoms: _88  and  _90
REMARK   35  A    between atoms: _90  and  _91
REMARK   36  A    between atoms: _90  and  _93
REMARK   37  A    between atoms: _93  and  _94
REMARK   38  A    between atoms: _97  and  _99
REMARK   39  A    between atoms: _99  and  _100
REMARK   40  A    between atoms: _99  and  _102
REMARK   41  A    between atoms: _102  and  _103
REMARK   42  A    between atoms: _103  and  _104
REMARK   43  A    between atoms: _109  and  _111
REMARK   44  A    between atoms: _111  and  _112
REMARK   45  A    between atoms: _114  and  _116
REMARK   46  A    between atoms: _116  and  _117
REMARK   47  A    between atoms: _116  and  _119
REMARK   48  A    between atoms: _119  and  _120
REMARK   49  A    between atoms: _123  and  _125
REMARK   50  A    between atoms: _125  and  _126
REMARK   51  A    between atoms: _125  and  _128
REMARK   52  A    between atoms: _130  and  _132
REMARK   53  A    between atoms: _132  and  _133
REMARK   54  A    between atoms: _135  and  _137
REMARK   55  A    between atoms: _137  and  _138
REMARK   56  A    between atoms: _137  and  _140
REMARK   57  A    between atoms: _140  and  _141
REMARK   58  A    between atoms: _146  and  _147
REMARK   59  A    between atoms: _149  and  _151
REMARK   60  A    between atoms: _151  and  _152
REMARK   61  A    between atoms: _151  and  _154
REMARK   62  A    between atoms: _154  and  _155
REMARK   63  A    between atoms: _160  and  _162
REMARK   64  A    between atoms: _162  and  _163
REMARK   65  A    between atoms: _162  and  _165
REMARK   66  A    between atoms: _165  and  _166
REMARK   67  A    between atoms: _166  and  _168
REMARK   68  A    between atoms: _168  and  CA_239
REMARK   69  A    between atoms: _169  and  _171
REMARK   70  A    between atoms: _171  and  _172
REMARK   71  A    between atoms: _171  and  _174
REMARK   72  A    between atoms: _178  and  _179
REMARK   73  A    between atoms: _184  and  _186
REMARK   74  A    between atoms: _186  and  _187
REMARK   75  A    between atoms: _189  and  _191
REMARK   76  A    between atoms: _191  and  _192
REMARK   77  A    between atoms: _191  and  _194
REMARK   78  A    between atoms: _194  and  _195
REMARK   79  A    between atoms: _198  and  _200
REMARK   80  A    between atoms: _200  and  _201
REMARK   81  A    between atoms: _200  and  _203
REMARK   82  A    between atoms: _203  and  _204
REMARK   83  A    between atoms: _209  and  _210
REMARK   84  A    between atoms: _212  and  _214
REMARK   85  A    between atoms: _214  and  _215
REMARK   86  A    between atoms: _217  and  _219
REMARK   87  A    between atoms: _219  and  _220
REMARK   88  A    between atoms: _219  and  _222
REMARK   89  A    between atoms: _222  and  _223
REMARK   90  A    between atoms: _228  and  _230
REMARK   91  A    between atoms: _230  and  _231
REMARK   92  A    between atoms: _230  and  _233
REMARK   93  A    between atoms: _233  and  _234
REMARK                            x       y       z     vdW  Elec       q    Type
REMARK                         _______ _______ _______ _____ _____    ______ ____
ROOT
ATOM      1  O   HOH     1      18.443   3.928   7.556  0.00  0.00    +0.000 OA
ENDROOT
TORSDOF 0
REMARK  Name = ../refined-set-2016/3zyf/3zyf_pocket.pdb
REMARK  93 active torsions:
REMARK  status: ('A' for Active; 'I' for Inactive)
REMARK    1  A    between atoms: _1  and  _3
REMARK    2  A    between atoms: _3  and  _4
REMARK    3  A    between atoms: _3  and  _6
REMARK    4  A    between atoms: _6  and  _7
REMARK    5  A    between atoms: _9  and  _11
REMARK    6  A    between atoms: _11  and  _12
REMARK    7  A    between atoms: _11  and  _14
REMARK    8  A    between atoms: _12  and  _13
REMARK    9  A    between atoms: _12  and  _23
REMARK   10  A    between atoms: _13  and  CA_239
REMARK   11  A    between atoms: _14  and  _15
REMARK   12  A    between atoms: _20  and  _21
REMARK   13  A    between atoms: _23  and  _25
REMARK   14  A    between atoms: _25  and  _26
REMARK   15  A    between atoms: _29  and  _30
REMARK   16  A    between atoms: _35  and  _37
REMARK   17  A    between atoms: _37  and  _38
REMARK   18  A    between atoms: _37  and  _40
REMARK   19  A    between atoms: _40  and  _41
REMARK   20  A    between atoms: _51  and  _53
REMARK   21  A    between atoms: _53  and  _54
REMARK   22  A    between atoms: _53  and  _56
REMARK   23  A    between atoms: _56  and  _57
REMARK   24  A    between atoms: _60  and  _62
REMARK   25  A    between atoms: _62  and  _63
REMARK   26  A    between atoms: _62  and  _65
REMARK   27  A    between atoms: _65  and  _66
REMARK   28  A    between atoms: _66  and  _67
REMARK   29  A    between atoms: _70  and  _72
REMARK   30  A    between atoms: _72  and  _73
REMARK   31  A    between atoms: _72  and  _75
REMARK   32  A    between atoms: _75  and  _76
REMARK   33  A    between atoms: _82  and  _83
REMARK   34  A    between atoms: _88  and  _90
REMARK   35  A    between atoms: _90  and  _91
REMARK   36  A    between atoms: _90  and  _93
REMARK   37  A    between atoms: _93  and  _94
REMARK   38  A    between atoms: _97  and  _99
REMARK   39  A    between atoms: _99  and  _100
REMARK   40  A    between atoms: _99  and  _102
REMARK   41  A    between atoms: _102  and  _103
REMARK   42  A    between atoms: _103  and  _104
REMARK   43  A    between atoms: _109  and  _111
REMARK   44  A    between atoms: _111  and  _112
REMARK   45  A    between atoms: _114  and  _116
REMARK   46  A    between atoms: _116  and  _117
REMARK   47  A    between atoms: _116  and  _119
REMARK   48  A    between atoms: _119  and  _120
REMARK   49  A    between atoms: _123  and  _125
REMARK   50  A    between atoms: _125  and  _126
REMARK   51  A    between atoms: _125  and  _128
REMARK   52  A    between atoms: _130  and  _132
REMARK   53  A    between atoms: _132  and  _133
REMARK   54  A    between atoms: _135  and  _137
REMARK   55  A    between atoms: _137  and  _138
REMARK   56  A    between atoms: _137  and  _140
REMARK   57  A    between atoms: _140  and  _141
REMARK   58  A    between atoms: _146  and  _147
REMARK   59  A    between atoms: _149  and  _151
REMARK   60  A    between atoms: _151  and  _152
REMARK   61  A    between atoms: _151  and  _154
REMARK   62  A    between atoms: _154  and  _155
REMARK   63  A    between atoms: _160  and  _162
REMARK   64  A    between atoms: _162  and  _163
REMARK   65  A    between atoms: _162  and  _165
REMARK   66  A    between atoms: _165  and  _166
REMARK   67  A    between atoms: _166  and  _168
REMARK   68  A    between atoms: _168  and  CA_239
REMARK   69  A    between atoms: _169  and  _171
REMARK   70  A    between atoms: _171  and  _172
REMARK   71  A    between atoms: _171  and  _174
REMARK   72  A    between atoms: _178  and  _179
REMARK   73  A    between atoms: _184  and  _186
REMARK   74  A    between atoms: _186  and  _187
REMARK   75  A    between atoms: _189  and  _191
REMARK   76  A    between atoms: _191  and  _192
REMARK   77  A    between atoms: _191  and  _194
REMARK   78  A    between atoms: _194  and  _195
REMARK   79  A    between atoms: _198  and  _200
REMARK   80  A    between atoms: _200  and  _201
REMARK   81  A    between atoms: _200  and  _203
REMARK   82  A    between atoms: _203  and  _204
REMARK   83  A    between atoms: _209  and  _210
REMARK   84  A    between atoms: _212  and  _214
REMARK   85  A    between atoms: _214  and  _215
REMARK   86  A    between atoms: _217  and  _219
REMARK   87  A    between atoms: _219  and  _220
REMARK   88  A    between atoms: _219  and  _222
REMARK   89  A    between atoms: _222  and  _223
REMARK   90  A    between atoms: _228  and  _230
REMARK   91  A    between atoms: _230  and  _231
REMARK   92  A    between atoms: _230  and  _233
REMARK   93  A    between atoms: _233  and  _234
REMARK                            x       y       z     vdW  Elec       q    Type
REMARK                         _______ _______ _______ _____ _____    ______ ____
ROOT
ATOM      1  O   HOH     1      16.864   6.054   9.051  0.00  0.00    +0.000 OA
ENDROOT
TORSDOF 0
REMARK  Name = ../refined-set-2016/3zyf/3zyf_pocket.pdb
REMARK  93 active torsions:
REMARK  status: ('A' for Active; 'I' for Inactive)
REMARK    1  A    between atoms: _1  and  _3
REMARK    2  A    between atoms: _3  and  _4
REMARK    3  A    between atoms: _3  and  _6
REMARK    4  A    between atoms: _6  and  _7
REMARK    5  A    between atoms: _9  and  _11
REMARK    6  A    between atoms: _11  and  _12
REMARK    7  A    between atoms: _11  and  _14
REMARK    8  A    between atoms: _12  and  _13
REMARK    9  A    between atoms: _12  and  _23
REMARK   10  A    between atoms: _13  and  CA_239
REMARK   11  A    between atoms: _14  and  _15
REMARK   12  A    between atoms: _20  and  _21
REMARK   13  A    between atoms: _23  and  _25
REMARK   14  A    between atoms: _25  and  _26
REMARK   15  A    between atoms: _29  and  _30
REMARK   16  A    between atoms: _35  and  _37
REMARK   17  A    between atoms: _37  and  _38
REMARK   18  A    between atoms: _37  and  _40
REMARK   19  A    between atoms: _40  and  _41
REMARK   20  A    between atoms: _51  and  _53
REMARK   21  A    between atoms: _53  and  _54
REMARK   22  A    between atoms: _53  and  _56
REMARK   23  A    between atoms: _56  and  _57
REMARK   24  A    between atoms: _60  and  _62
REMARK   25  A    between atoms: _62  and  _63
REMARK   26  A    between atoms: _62  and  _65
REMARK   27  A    between atoms: _65  and  _66
REMARK   28  A    between atoms: _66  and  _67
REMARK   29  A    between atoms: _70  and  _72
REMARK   30  A    between atoms: _72  and  _73
REMARK   31  A    between atoms: _72  and  _75
REMARK   32  A    between atoms: _75  and  _76
REMARK   33  A    between atoms: _82  and  _83
REMARK   34  A    between atoms: _88  and  _90
REMARK   35  A    between atoms: _90  and  _91
REMARK   36  A    between atoms: _90  and  _93
REMARK   37  A    between atoms: _93  and  _94
REMARK   38  A    between atoms: _97  and  _99
REMARK   39  A    between atoms: _99  and  _100
REMARK   40  A    between atoms: _99  and  _102
REMARK   41  A    between atoms: _102  and  _103
REMARK   42  A    between atoms: _103  and  _104
REMARK   43  A    between atoms: _109  and  _111
REMARK   44  A    between atoms: _111  and  _112
REMARK   45  A    between atoms: _114  and  _116
REMARK   46  A    between atoms: _116  and  _117
REMARK   47  A    between atoms: _116  and  _119
REMARK   48  A    between atoms: _119  and  _120
REMARK   49  A    between atoms: _123  and  _125
REMARK   50  A    between atoms: _125  and  _126
REMARK   51  A    between atoms: _125  and  _128
REMARK   52  A    between atoms: _130  and  _132
REMARK   53  A    between atoms: _132  and  _133
REMARK   54  A    between atoms: _135  and  _137
REMARK   55  A    between atoms: _137  and  _138
REMARK   56  A    between atoms: _137  and  _140
REMARK   57  A    between atoms: _140  and  _141
REMARK   58  A    between atoms: _146  and  _147
REMARK   59  A    between atoms: _149  and  _151
REMARK   60  A    between atoms: _151  and  _152
REMARK   61  A    between atoms: _151  and  _154
REMARK   62  A    between atoms: _154  and  _155
REMARK   63  A    between atoms: _160  and  _162
REMARK   64  A    between atoms: _162  and  _163
REMARK   65  A    between atoms: _162  and  _165
REMARK   66  A    between atoms: _165  and  _166
REMARK   67  A    between atoms: _166  and  _168
REMARK   68  A    between atoms: _168  and  CA_239
REMARK   69  A    between atoms: _169  and  _171
REMARK   70  A    between atoms: _171  and  _172
REMARK   71  A    between atoms: _171  and  _174
REMARK   72  A    between atoms: _178  and  _179
REMARK   73  A    between atoms: _184  and  _186
REMARK   74  A    between atoms: _186  and  _187
REMARK   75  A    between atoms: _189  and  _191
REMARK   76  A    between atoms: _191  and  _192
REMARK   77  A    between atoms: _191  and  _194
REMARK   78  A    between atoms: _194  and  _195
REMARK   79  A    between atoms: _198  and  _200
REMARK   80  A    between atoms: _200  and  _201
REMARK   81  A    between atoms: _200  and  _203
REMARK   82  A    between atoms: _203  and  _204
REMARK   83  A    between atoms: _209  and  _210
REMARK   84  A    between atoms: _212  and  _214
REMARK   85  A    between atoms: _214  and  _215
REMARK   86  A    between atoms: _217  and  _219
REMARK   87  A    between atoms: _219  and  _220
REMARK   88  A    between atoms: _219  and  _222
REMARK   89  A    between atoms: _222  and  _223
REMARK   90  A    between atoms: _228  and  _230
REMARK   91  A    between atoms: _230  and  _231
REMARK   92  A    between atoms: _230  and  _233
REMARK   93  A    between atoms: _233  and  _234
REMARK                            x       y       z     vdW  Elec       q    Type
REMARK                         _______ _______ _______ _____ _____    ______ ____
ROOT
ATOM      1  O   HOH     1      14.957   7.532   8.008  0.00  0.00    +0.000 OA
ENDROOT
TORSDOF 0
