REMARK  Name = ../refined-set-2016/4ai5/4ai5_pocket.pdb
REMARK  116 active torsions:
REMARK  status: ('A' for Active; 'I' for Inactive)
REMARK    1  A    between atoms: _1  and  _3
REMARK    2  A    between atoms: _3  and  _4
REMARK    3  A    between atoms: _3  and  _6
REMARK    4  A    between atoms: _8  and  _10
REMARK    5  A    between atoms: _10  and  _11
REMARK    6  A    between atoms: _14  and  _16
REMARK    7  A    between atoms: _16  and  _17
REMARK    8  A    between atoms: _16  and  _19
REMARK    9  A    between atoms: _19  and  _20
REMARK   10  A    between atoms: _26  and  _28
REMARK   11  A    between atoms: _28  and  _29
REMARK   12  A    between atoms: _28  and  _31
REMARK   13  A    between atoms: _31  and  _32
REMARK   14  A    between atoms: _37  and  _38
REMARK   15  A    between atoms: _40  and  _42
REMARK   16  A    between atoms: _42  and  _43
REMARK   17  A    between atoms: _42  and  _45
REMARK   18  A    between atoms: _45  and  _46
REMARK   19  A    between atoms: _52  and  _54
REMARK   20  A    between atoms: _54  and  _55
REMARK   21  A    between atoms: _54  and  _57
REMARK   22  A    between atoms: _57  and  _58
REMARK   23  A    between atoms: _63  and  _65
REMARK   24  A    between atoms: _65  and  _66
REMARK   25  A    between atoms: _65  and  _68
REMARK   26  A    between atoms: _71  and  _73
REMARK   27  A    between atoms: _73  and  _74
REMARK   28  A    between atoms: _73  and  _76
REMARK   29  A    between atoms: _76  and  _77
REMARK   30  A    between atoms: _87  and  _89
REMARK   31  A    between atoms: _89  and  _90
REMARK   32  A    between atoms: _92  and  _94
REMARK   33  A    between atoms: _94  and  _95
REMARK   34  A    between atoms: _94  and  _97
REMARK   35  A    between atoms: _97  and  _98
REMARK   36  A    between atoms: _101  and  _103
REMARK   37  A    between atoms: _103  and  _104
REMARK   38  A    between atoms: _103  and  _106
REMARK   39  A    between atoms: _106  and  _107
REMARK   40  A    between atoms: _110  and  _112
REMARK   41  A    between atoms: _112  and  _113
REMARK   42  A    between atoms: _112  and  _115
REMARK   43  A    between atoms: _115  and  _116
REMARK   44  A    between atoms: _116  and  _117
REMARK   45  A    between atoms: _120  and  _122
REMARK   46  A    between atoms: _122  and  _123
REMARK   47  A    between atoms: _122  and  _125
REMARK   48  A    between atoms: _125  and  _126
REMARK   49  A    between atoms: _128  and  _130
REMARK   50  A    between atoms: _130  and  _131
REMARK   51  A    between atoms: _130  and  _133
REMARK   52  A    between atoms: _133  and  _134
REMARK   53  A    between atoms: _139  and  _141
REMARK   54  A    between atoms: _141  and  _142
REMARK   55  A    between atoms: _145  and  _147
REMARK   56  A    between atoms: _147  and  _148
REMARK   57  A    between atoms: _147  and  _150
REMARK   58  A    between atoms: _150  and  _151
REMARK   59  A    between atoms: _154  and  _156
REMARK   60  A    between atoms: _156  and  _157
REMARK   61  A    between atoms: _156  and  _159
REMARK   62  A    between atoms: _159  and  _160
REMARK   63  A    between atoms: _162  and  _164
REMARK   64  A    between atoms: _164  and  _165
REMARK   65  A    between atoms: _164  and  _167
REMARK   66  A    between atoms: _167  and  _168
REMARK   67  A    between atoms: _178  and  _180
REMARK   68  A    between atoms: _180  and  _181
REMARK   69  A    between atoms: _180  and  _183
REMARK   70  A    between atoms: _183  and  _184
REMARK   71  A    between atoms: _187  and  _189
REMARK   72  A    between atoms: _189  and  _190
REMARK   73  A    between atoms: _189  and  _192
REMARK   74  A    between atoms: _192  and  _193
REMARK   75  A    between atoms: _196  and  _198
REMARK   76  A    between atoms: _198  and  _199
REMARK   77  A    between atoms: _198  and  _201
REMARK   78  A    between atoms: _201  and  _202
REMARK   79  A    between atoms: _205  and  _207
REMARK   80  A    between atoms: _207  and  _208
REMARK   81  A    between atoms: _207  and  _210
REMARK   82  A    between atoms: _210  and  _211
REMARK   83  A    between atoms: _211  and  _212
REMARK   84  A    between atoms: _212  and  _213
REMARK   85  A    between atoms: _222  and  _224
REMARK   86  A    between atoms: _224  and  _225
REMARK   87  A    between atoms: _224  and  _227
REMARK   88  A    between atoms: _230  and  _232
REMARK   89  A    between atoms: _232  and  _233
REMARK   90  A    between atoms: _232  and  _235
REMARK   91  A    between atoms: _235  and  _236
REMARK   92  A    between atoms: _239  and  _241
REMARK   93  A    between atoms: _241  and  _242
REMARK   94  A    between atoms: _241  and  _244
REMARK   95  A    between atoms: _244  and  _245
REMARK   96  A    between atoms: _251  and  _253
REMARK   97  A    between atoms: _253  and  _254
REMARK   98  A    between atoms: _253  and  _256
REMARK   99  A    between atoms: _256  and  _257
REMARK  100  A    between atoms: _259  and  _261
REMARK  101  A    between atoms: _261  and  _262
REMARK  102  A    between atoms: _261  and  _264
REMARK  103  A    between atoms: _264  and  _265
REMARK  104  A    between atoms: _271  and  _273
REMARK  105  A    between atoms: _273  and  _274
REMARK  106  A    between atoms: _273  and  _276
REMARK  107  A    between atoms: _276  and  _277
REMARK  108  A    between atoms: _280  and  _282
REMARK  109  A    between atoms: _282  and  _283
REMARK  110  A    between atoms: _282  and  _285
REMARK  111  A    between atoms: _285  and  _286
REMARK  112  A    between atoms: _286  and  _287
REMARK  113  A    between atoms: _290  and  _292
REMARK  114  A    between atoms: _292  and  _293
REMARK  115  A    between atoms: _296  and  _298
REMARK  116  A    between atoms: _298  and  _299
REMARK                            x       y       z     vdW  Elec       q    Type
REMARK                         _______ _______ _______ _____ _____    ______ ____
ROOT
ATOM      1  C   ALA A   2      30.492 -30.244   1.087  0.00  0.00    +0.241 C 
ATOM      2  O   ALA A   2      30.276 -30.430   2.293  0.00  0.00    -0.273 OA
ATOM      3  N   PHE A   3      31.641 -29.772   0.630  0.00  0.00    -0.298 N 
ATOM      4  H   PHE A   3      31.809 -29.759  -0.396  0.00  0.00    +0.150 HD
ENDROOT
BRANCH   1   5
ATOM      5  CA  ALA A   2      29.422 -30.605   0.061  0.00  0.00    +0.149 C 
ATOM      6  CB  ALA A   2      28.480 -31.621   0.648  0.00  0.00    +0.031 C 
BRANCH   5   8
ATOM      7  C   CYS A   1      30.217 -30.288  -2.254  0.00  0.00    +0.239 C 
ATOM      8  N   ALA A   2      29.983 -31.091  -1.226  0.00  0.00    -0.297 N 
ATOM      9  H   ALA A   2      30.201 -32.103  -1.324  0.00  0.00    +0.150 HD
ATOM     10  O   CYS A   1      30.172 -29.056  -2.171  0.00  0.00    -0.274 OA
BRANCH   7  11
ATOM     11  CA  CYS A   1      30.581 -30.958  -3.554  0.00  0.00    +0.156 C 
BRANCH  11  12
ATOM     12  N   CYS A   1      31.479 -32.088  -3.340  0.00  0.00    -0.237 NA
ATOM     13  H   CYS A   1      31.122 -33.054  -3.483  0.00  0.00    +0.142 HD
ENDBRANCH  11  12
BRANCH  11  14
ATOM     14  CB  CYS A   1      29.326 -31.432  -4.303  0.00  0.00    +0.095 C 
ATOM     15  SG  CYS A   1      28.202 -30.107  -4.771  0.00  0.00    -0.080 S 
ENDBRANCH  11  14
ENDBRANCH   7  11
ENDBRANCH   5   8
ENDBRANCH   1   5
BRANCH   3  16
ATOM     16  CA  PHE A   3      32.683 -29.267   1.528  0.00  0.00    +0.141 C 
BRANCH  16  17
ATOM     17  C   PHE A   3      33.074 -30.278   2.634  0.00  0.00    +0.227 C 
ATOM     18  O   PHE A   3      33.424 -29.906   3.778  0.00  0.00    -0.286 OA
ENDBRANCH  16  17
BRANCH  16  19
ATOM     19  CB  PHE A   3      32.245 -27.949   2.149  0.00  0.00    +0.054 C 
BRANCH  19  20
ATOM     20  CG  PHE A   3      31.525 -27.035   1.171  0.00  0.00    -0.020 A 
ATOM     21  CD2 PHE A   3      30.127 -27.093   1.081  0.00  0.00    -0.004 A 
ATOM     22  CE2 PHE A   3      29.433 -26.318   0.154  0.00  0.00    -0.000 A 
ATOM     23  CZ  PHE A   3      30.152 -25.462  -0.676  0.00  0.00    -0.000 A 
ATOM     24  CE1 PHE A   3      31.551 -25.389  -0.594  0.00  0.00    -0.000 A 
ATOM     25  CD1 PHE A   3      32.230 -26.192   0.314  0.00  0.00    -0.004 A 
ENDBRANCH  19  20
ENDBRANCH  16  19
ENDBRANCH   3  16
TORSDOF 9
REMARK  Name = ../refined-set-2016/4ai5/4ai5_pocket.pdb
REMARK  116 active torsions:
REMARK  status: ('A' for Active; 'I' for Inactive)
REMARK    1  A    between atoms: _1  and  _3
REMARK    2  A    between atoms: _3  and  _4
REMARK    3  A    between atoms: _3  and  _6
REMARK    4  A    between atoms: _8  and  _10
REMARK    5  A    between atoms: _10  and  _11
REMARK    6  A    between atoms: _14  and  _16
REMARK    7  A    between atoms: _16  and  _17
REMARK    8  A    between atoms: _16  and  _19
REMARK    9  A    between atoms: _19  and  _20
REMARK   10  A    between atoms: _26  and  _28
REMARK   11  A    between atoms: _28  and  _29
REMARK   12  A    between atoms: _28  and  _31
REMARK   13  A    between atoms: _31  and  _32
REMARK   14  A    between atoms: _37  and  _38
REMARK   15  A    between atoms: _40  and  _42
REMARK   16  A    between atoms: _42  and  _43
REMARK   17  A    between atoms: _42  and  _45
REMARK   18  A    between atoms: _45  and  _46
REMARK   19  A    between atoms: _52  and  _54
REMARK   20  A    between atoms: _54  and  _55
REMARK   21  A    between atoms: _54  and  _57
REMARK   22  A    between atoms: _57  and  _58
REMARK   23  A    between atoms: _63  and  _65
REMARK   24  A    between atoms: _65  and  _66
REMARK   25  A    between atoms: _65  and  _68
REMARK   26  A    between atoms: _71  and  _73
REMARK   27  A    between atoms: _73  and  _74
REMARK   28  A    between atoms: _73  and  _76
REMARK   29  A    between atoms: _76  and  _77
REMARK   30  A    between atoms: _87  and  _89
REMARK   31  A    between atoms: _89  and  _90
REMARK   32  A    between atoms: _92  and  _94
REMARK   33  A    between atoms: _94  and  _95
REMARK   34  A    between atoms: _94  and  _97
REMARK   35  A    between atoms: _97  and  _98
REMARK   36  A    between atoms: _101  and  _103
REMARK   37  A    between atoms: _103  and  _104
REMARK   38  A    between atoms: _103  and  _106
REMARK   39  A    between atoms: _106  and  _107
REMARK   40  A    between atoms: _110  and  _112
REMARK   41  A    between atoms: _112  and  _113
REMARK   42  A    between atoms: _112  and  _115
REMARK   43  A    between atoms: _115  and  _116
REMARK   44  A    between atoms: _116  and  _117
REMARK   45  A    between atoms: _120  and  _122
REMARK   46  A    between atoms: _122  and  _123
REMARK   47  A    between atoms: _122  and  _125
REMARK   48  A    between atoms: _125  and  _126
REMARK   49  A    between atoms: _128  and  _130
REMARK   50  A    between atoms: _130  and  _131
REMARK   51  A    between atoms: _130  and  _133
REMARK   52  A    between atoms: _133  and  _134
REMARK   53  A    between atoms: _139  and  _141
REMARK   54  A    between atoms: _141  and  _142
REMARK   55  A    between atoms: _145  and  _147
REMARK   56  A    between atoms: _147  and  _148
REMARK   57  A    between atoms: _147  and  _150
REMARK   58  A    between atoms: _150  and  _151
REMARK   59  A    between atoms: _154  and  _156
REMARK   60  A    between atoms: _156  and  _157
REMARK   61  A    between atoms: _156  and  _159
REMARK   62  A    between atoms: _159  and  _160
REMARK   63  A    between atoms: _162  and  _164
REMARK   64  A    between atoms: _164  and  _165
REMARK   65  A    between atoms: _164  and  _167
REMARK   66  A    between atoms: _167  and  _168
REMARK   67  A    between atoms: _178  and  _180
REMARK   68  A    between atoms: _180  and  _181
REMARK   69  A    between atoms: _180  and  _183
REMARK   70  A    between atoms: _183  and  _184
REMARK   71  A    between atoms: _187  and  _189
REMARK   72  A    between atoms: _189  and  _190
REMARK   73  A    between atoms: _189  and  _192
REMARK   74  A    between atoms: _192  and  _193
REMARK   75  A    between atoms: _196  and  _198
REMARK   76  A    between atoms: _198  and  _199
REMARK   77  A    between atoms: _198  and  _201
REMARK   78  A    between atoms: _201  and  _202
REMARK   79  A    between atoms: _205  and  _207
REMARK   80  A    between atoms: _207  and  _208
REMARK   81  A    between atoms: _207  and  _210
REMARK   82  A    between atoms: _210  and  _211
REMARK   83  A    between atoms: _211  and  _212
REMARK   84  A    between atoms: _212  and  _213
REMARK   85  A    between atoms: _222  and  _224
REMARK   86  A    between atoms: _224  and  _225
REMARK   87  A    between atoms: _224  and  _227
REMARK   88  A    between atoms: _230  and  _232
REMARK   89  A    between atoms: _232  and  _233
REMARK   90  A    between atoms: _232  and  _235
REMARK   91  A    between atoms: _235  and  _236
REMARK   92  A    between atoms: _239  and  _241
REMARK   93  A    between atoms: _241  and  _242
REMARK   94  A    between atoms: _241  and  _244
REMARK   95  A    between atoms: _244  and  _245
REMARK   96  A    between atoms: _251  and  _253
REMARK   97  A    between atoms: _253  and  _254
REMARK   98  A    between atoms: _253  and  _256
REMARK   99  A    between atoms: _256  and  _257
REMARK  100  A    between atoms: _259  and  _261
REMARK  101  A    between atoms: _261  and  _262
REMARK  102  A    between atoms: _261  and  _264
REMARK  103  A    between atoms: _264  and  _265
REMARK  104  A    between atoms: _271  and  _273
REMARK  105  A    between atoms: _273  and  _274
REMARK  106  A    between atoms: _273  and  _276
REMARK  107  A    between atoms: _276  and  _277
REMARK  108  A    between atoms: _280  and  _282
REMARK  109  A    between atoms: _282  and  _283
REMARK  110  A    between atoms: _282  and  _285
REMARK  111  A    between atoms: _285  and  _286
REMARK  112  A    between atoms: _286  and  _287
REMARK  113  A    between atoms: _290  and  _292
REMARK  114  A    between atoms: _292  and  _293
REMARK  115  A    between atoms: _296  and  _298
REMARK  116  A    between atoms: _298  and  _299
REMARK                            x       y       z     vdW  Elec       q    Type
REMARK                         _______ _______ _______ _____ _____    ______ ____
ROOT
ATOM      1  CG  TYR A   1      27.296 -28.015   6.244  0.00  0.00    -0.020 A 
ATOM      2  CD2 TYR A   1      28.666 -27.846   6.388  0.00  0.00    -0.001 A 
ATOM      3  CE2 TYR A   1      29.349 -26.851   5.665  0.00  0.00    +0.036 A 
ATOM      4  CZ  TYR A   1      28.660 -26.050   4.773  0.00  0.00    +0.134 A 
ATOM      5  CE1 TYR A   1      27.304 -26.232   4.590  0.00  0.00    +0.036 A 
ATOM      6  CD1 TYR A   1      26.630 -27.202   5.304  0.00  0.00    -0.001 A 
ENDROOT
BRANCH   4   7
ATOM      7  OH  TYR A   1      29.344 -25.077   4.087  0.00  0.00    -0.506 OA
ATOM      8  HH  TYR A   1      29.748 -24.443   4.731  0.00  0.00    +0.292 HD
ENDBRANCH   4   7
BRANCH   1   9
ATOM      9  CB  TYR A   1      26.575 -29.126   7.024  0.00  0.00    +0.051 C 
BRANCH   9  10
ATOM     10  CA  TYR A   1      25.077 -29.156   6.896  0.00  0.00    +0.137 C 
BRANCH  10  11
ATOM     11  N   TYR A   1      24.465 -29.728   8.064  0.00  0.00    -0.239 NA
ATOM     12  H   TYR A   1      25.042 -30.280   8.730  0.00  0.00    +0.142 HD
ENDBRANCH  10  11
BRANCH  10  13
ATOM     13  C   TYR A   1      24.649 -29.954   5.667  0.00  0.00    +0.224 C 
ATOM     14  O   TYR A   1      24.370 -29.389   4.611  0.00  0.00    -0.287 OA
ENDBRANCH  10  13
ENDBRANCH   9  10
ENDBRANCH   1   9
TORSDOF 5
REMARK  Name = ../refined-set-2016/4ai5/4ai5_pocket.pdb
REMARK  116 active torsions:
REMARK  status: ('A' for Active; 'I' for Inactive)
REMARK    1  A    between atoms: _1  and  _3
REMARK    2  A    between atoms: _3  and  _4
REMARK    3  A    between atoms: _3  and  _6
REMARK    4  A    between atoms: _8  and  _10
REMARK    5  A    between atoms: _10  and  _11
REMARK    6  A    between atoms: _14  and  _16
REMARK    7  A    between atoms: _16  and  _17
REMARK    8  A    between atoms: _16  and  _19
REMARK    9  A    between atoms: _19  and  _20
REMARK   10  A    between atoms: _26  and  _28
REMARK   11  A    between atoms: _28  and  _29
REMARK   12  A    between atoms: _28  and  _31
REMARK   13  A    between atoms: _31  and  _32
REMARK   14  A    between atoms: _37  and  _38
REMARK   15  A    between atoms: _40  and  _42
REMARK   16  A    between atoms: _42  and  _43
REMARK   17  A    between atoms: _42  and  _45
REMARK   18  A    between atoms: _45  and  _46
REMARK   19  A    between atoms: _52  and  _54
REMARK   20  A    between atoms: _54  and  _55
REMARK   21  A    between atoms: _54  and  _57
REMARK   22  A    between atoms: _57  and  _58
REMARK   23  A    between atoms: _63  and  _65
REMARK   24  A    between atoms: _65  and  _66
REMARK   25  A    between atoms: _65  and  _68
REMARK   26  A    between atoms: _71  and  _73
REMARK   27  A    between atoms: _73  and  _74
REMARK   28  A    between atoms: _73  and  _76
REMARK   29  A    between atoms: _76  and  _77
REMARK   30  A    between atoms: _87  and  _89
REMARK   31  A    between atoms: _89  and  _90
REMARK   32  A    between atoms: _92  and  _94
REMARK   33  A    between atoms: _94  and  _95
REMARK   34  A    between atoms: _94  and  _97
REMARK   35  A    between atoms: _97  and  _98
REMARK   36  A    between atoms: _101  and  _103
REMARK   37  A    between atoms: _103  and  _104
REMARK   38  A    between atoms: _103  and  _106
REMARK   39  A    between atoms: _106  and  _107
REMARK   40  A    between atoms: _110  and  _112
REMARK   41  A    between atoms: _112  and  _113
REMARK   42  A    between atoms: _112  and  _115
REMARK   43  A    between atoms: _115  and  _116
REMARK   44  A    between atoms: _116  and  _117
REMARK   45  A    between atoms: _120  and  _122
REMARK   46  A    between atoms: _122  and  _123
REMARK   47  A    between atoms: _122  and  _125
REMARK   48  A    between atoms: _125  and  _126
REMARK   49  A    between atoms: _128  and  _130
REMARK   50  A    between atoms: _130  and  _131
REMARK   51  A    between atoms: _130  and  _133
REMARK   52  A    between atoms: _133  and  _134
REMARK   53  A    between atoms: _139  and  _141
REMARK   54  A    between atoms: _141  and  _142
REMARK   55  A    between atoms: _145  and  _147
REMARK   56  A    between atoms: _147  and  _148
REMARK   57  A    between atoms: _147  and  _150
REMARK   58  A    between atoms: _150  and  _151
REMARK   59  A    between atoms: _154  and  _156
REMARK   60  A    between atoms: _156  and  _157
REMARK   61  A    between atoms: _156  and  _159
REMARK   62  A    between atoms: _159  and  _160
REMARK   63  A    between atoms: _162  and  _164
REMARK   64  A    between atoms: _164  and  _165
REMARK   65  A    between atoms: _164  and  _167
REMARK   66  A    between atoms: _167  and  _168
REMARK   67  A    between atoms: _178  and  _180
REMARK   68  A    between atoms: _180  and  _181
REMARK   69  A    between atoms: _180  and  _183
REMARK   70  A    between atoms: _183  and  _184
REMARK   71  A    between atoms: _187  and  _189
REMARK   72  A    between atoms: _189  and  _190
REMARK   73  A    between atoms: _189  and  _192
REMARK   74  A    between atoms: _192  and  _193
REMARK   75  A    between atoms: _196  and  _198
REMARK   76  A    between atoms: _198  and  _199
REMARK   77  A    between atoms: _198  and  _201
REMARK   78  A    between atoms: _201  and  _202
REMARK   79  A    between atoms: _205  and  _207
REMARK   80  A    between atoms: _207  and  _208
REMARK   81  A    between atoms: _207  and  _210
REMARK   82  A    between atoms: _210  and  _211
REMARK   83  A    between atoms: _211  and  _212
REMARK   84  A    between atoms: _212  and  _213
REMARK   85  A    between atoms: _222  and  _224
REMARK   86  A    between atoms: _224  and  _225
REMARK   87  A    between atoms: _224  and  _227
REMARK   88  A    between atoms: _230  and  _232
REMARK   89  A    between atoms: _232  and  _233
REMARK   90  A    between atoms: _232  and  _235
REMARK   91  A    between atoms: _235  and  _236
REMARK   92  A    between atoms: _239  and  _241
REMARK   93  A    between atoms: _241  and  _242
REMARK   94  A    between atoms: _241  and  _244
REMARK   95  A    between atoms: _244  and  _245
REMARK   96  A    between atoms: _251  and  _253
REMARK   97  A    between atoms: _253  and  _254
REMARK   98  A    between atoms: _253  and  _256
REMARK   99  A    between atoms: _256  and  _257
REMARK  100  A    between atoms: _259  and  _261
REMARK  101  A    between atoms: _261  and  _262
REMARK  102  A    between atoms: _261  and  _264
REMARK  103  A    between atoms: _264  and  _265
REMARK  104  A    between atoms: _271  and  _273
REMARK  105  A    between atoms: _273  and  _274
REMARK  106  A    between atoms: _273  and  _276
REMARK  107  A    between atoms: _276  and  _277
REMARK  108  A    between atoms: _280  and  _282
REMARK  109  A    between atoms: _282  and  _283
REMARK  110  A    between atoms: _282  and  _285
REMARK  111  A    between atoms: _285  and  _286
REMARK  112  A    between atoms: _286  and  _287
REMARK  113  A    between atoms: _290  and  _292
REMARK  114  A    between atoms: _292  and  _293
REMARK  115  A    between atoms: _296  and  _298
REMARK  116  A    between atoms: _298  and  _299
REMARK                            x       y       z     vdW  Elec       q    Type
REMARK                         _______ _______ _______ _____ _____    ______ ____
ROOT
ATOM      1  C   PHE A   1      21.723 -27.856   2.568  0.00  0.00    +0.239 C 
ATOM      2  N   HIS A   2      22.741 -28.696   2.380  0.00  0.00    -0.298 N 
ATOM      3  H   HIS A   2      23.167 -29.184   3.194  0.00  0.00    +0.150 HD
ATOM      4  O   PHE A   1      21.182 -27.277   1.602  0.00  0.00    -0.274 OA
ENDROOT
BRANCH   1   5
ATOM      5  CA  PHE A   1      21.220 -27.637   4.022  0.00  0.00    +0.149 C 
BRANCH   5   6
ATOM      6  N   PHE A   1      21.100 -28.912   4.721  0.00  0.00    -0.238 NA
ATOM      7  H   PHE A   1      21.673 -29.076   5.573  0.00  0.00    +0.142 HD
ENDBRANCH   5   6
BRANCH   5   8
ATOM      8  CB  PHE A   1      22.156 -26.728   4.808  0.00  0.00    +0.053 C 
BRANCH   8   9
ATOM      9  CG  PHE A   1      22.417 -25.404   4.138  0.00  0.00    -0.020 A 
ATOM     10  CD2 PHE A   1      21.446 -24.400   4.163  0.00  0.00    -0.004 A 
ATOM     11  CE2 PHE A   1      21.673 -23.165   3.551  0.00  0.00    -0.000 A 
ATOM     12  CZ  PHE A   1      22.842 -22.975   2.857  0.00  0.00    -0.000 A 
ATOM     13  CE1 PHE A   1      23.781 -23.967   2.794  0.00  0.00    -0.000 A 
ATOM     14  CD1 PHE A   1      23.590 -25.156   3.483  0.00  0.00    -0.004 A 
ENDBRANCH   8   9
ENDBRANCH   5   8
ENDBRANCH   1   5
BRANCH   2  15
ATOM     15  CA  HIS A   2      23.259 -28.933   1.039  0.00  0.00    +0.143 C 
BRANCH  15  16
ATOM     16  C   HIS A   2      22.198 -29.526   0.104  0.00  0.00    +0.227 C 
ATOM     17  O   HIS A   2      22.147 -29.216  -1.078  0.00  0.00    -0.286 OA
ENDBRANCH  15  16
BRANCH  15  18
ATOM     18  CB  HIS A   2      24.475 -29.875   1.113  0.00  0.00    +0.075 C 
BRANCH  18  19
ATOM     19  CG  HIS A   2      25.103 -30.139  -0.219  0.00  0.00    +0.082 A 
ATOM     20  ND1 HIS A   2      26.058 -29.307  -0.737  0.00  0.00    -0.227 NA
ATOM     21  CE1 HIS A   2      26.408 -29.757  -1.970  0.00  0.00    +0.199 A 
ATOM     22  NE2 HIS A   2      25.673 -30.856  -2.242  0.00  0.00    -0.221 NA
ATOM     23  CD2 HIS A   2      24.862 -31.116  -1.182  0.00  0.00    +0.115 A 
ENDBRANCH  18  19
ENDBRANCH  15  18
ENDBRANCH   2  15
TORSDOF 8
REMARK  Name = ../refined-set-2016/4ai5/4ai5_pocket.pdb
REMARK  116 active torsions:
REMARK  status: ('A' for Active; 'I' for Inactive)
REMARK    1  A    between atoms: _1  and  _3
REMARK    2  A    between atoms: _3  and  _4
REMARK    3  A    between atoms: _3  and  _6
REMARK    4  A    between atoms: _8  and  _10
REMARK    5  A    between atoms: _10  and  _11
REMARK    6  A    between atoms: _14  and  _16
REMARK    7  A    between atoms: _16  and  _17
REMARK    8  A    between atoms: _16  and  _19
REMARK    9  A    between atoms: _19  and  _20
REMARK   10  A    between atoms: _26  and  _28
REMARK   11  A    between atoms: _28  and  _29
REMARK   12  A    between atoms: _28  and  _31
REMARK   13  A    between atoms: _31  and  _32
REMARK   14  A    between atoms: _37  and  _38
REMARK   15  A    between atoms: _40  and  _42
REMARK   16  A    between atoms: _42  and  _43
REMARK   17  A    between atoms: _42  and  _45
REMARK   18  A    between atoms: _45  and  _46
REMARK   19  A    between atoms: _52  and  _54
REMARK   20  A    between atoms: _54  and  _55
REMARK   21  A    between atoms: _54  and  _57
REMARK   22  A    between atoms: _57  and  _58
REMARK   23  A    between atoms: _63  and  _65
REMARK   24  A    between atoms: _65  and  _66
REMARK   25  A    between atoms: _65  and  _68
REMARK   26  A    between atoms: _71  and  _73
REMARK   27  A    between atoms: _73  and  _74
REMARK   28  A    between atoms: _73  and  _76
REMARK   29  A    between atoms: _76  and  _77
REMARK   30  A    between atoms: _87  and  _89
REMARK   31  A    between atoms: _89  and  _90
REMARK   32  A    between atoms: _92  and  _94
REMARK   33  A    between atoms: _94  and  _95
REMARK   34  A    between atoms: _94  and  _97
REMARK   35  A    between atoms: _97  and  _98
REMARK   36  A    between atoms: _101  and  _103
REMARK   37  A    between atoms: _103  and  _104
REMARK   38  A    between atoms: _103  and  _106
REMARK   39  A    between atoms: _106  and  _107
REMARK   40  A    between atoms: _110  and  _112
REMARK   41  A    between atoms: _112  and  _113
REMARK   42  A    between atoms: _112  and  _115
REMARK   43  A    between atoms: _115  and  _116
REMARK   44  A    between atoms: _116  and  _117
REMARK   45  A    between atoms: _120  and  _122
REMARK   46  A    between atoms: _122  and  _123
REMARK   47  A    between atoms: _122  and  _125
REMARK   48  A    between atoms: _125  and  _126
REMARK   49  A    between atoms: _128  and  _130
REMARK   50  A    between atoms: _130  and  _131
REMARK   51  A    between atoms: _130  and  _133
REMARK   52  A    between atoms: _133  and  _134
REMARK   53  A    between atoms: _139  and  _141
REMARK   54  A    between atoms: _141  and  _142
REMARK   55  A    between atoms: _145  and  _147
REMARK   56  A    between atoms: _147  and  _148
REMARK   57  A    between atoms: _147  and  _150
REMARK   58  A    between atoms: _150  and  _151
REMARK   59  A    between atoms: _154  and  _156
REMARK   60  A    between atoms: _156  and  _157
REMARK   61  A    between atoms: _156  and  _159
REMARK   62  A    between atoms: _159  and  _160
REMARK   63  A    between atoms: _162  and  _164
REMARK   64  A    between atoms: _164  and  _165
REMARK   65  A    between atoms: _164  and  _167
REMARK   66  A    between atoms: _167  and  _168
REMARK   67  A    between atoms: _178  and  _180
REMARK   68  A    between atoms: _180  and  _181
REMARK   69  A    between atoms: _180  and  _183
REMARK   70  A    between atoms: _183  and  _184
REMARK   71  A    between atoms: _187  and  _189
REMARK   72  A    between atoms: _189  and  _190
REMARK   73  A    between atoms: _189  and  _192
REMARK   74  A    between atoms: _192  and  _193
REMARK   75  A    between atoms: _196  and  _198
REMARK   76  A    between atoms: _198  and  _199
REMARK   77  A    between atoms: _198  and  _201
REMARK   78  A    between atoms: _201  and  _202
REMARK   79  A    between atoms: _205  and  _207
REMARK   80  A    between atoms: _207  and  _208
REMARK   81  A    between atoms: _207  and  _210
REMARK   82  A    between atoms: _210  and  _211
REMARK   83  A    between atoms: _211  and  _212
REMARK   84  A    between atoms: _212  and  _213
REMARK   85  A    between atoms: _222  and  _224
REMARK   86  A    between atoms: _224  and  _225
REMARK   87  A    between atoms: _224  and  _227
REMARK   88  A    between atoms: _230  and  _232
REMARK   89  A    between atoms: _232  and  _233
REMARK   90  A    between atoms: _232  and  _235
REMARK   91  A    between atoms: _235  and  _236
REMARK   92  A    between atoms: _239  and  _241
REMARK   93  A    between atoms: _241  and  _242
REMARK   94  A    between atoms: _241  and  _244
REMARK   95  A    between atoms: _244  and  _245
REMARK   96  A    between atoms: _251  and  _253
REMARK   97  A    between atoms: _253  and  _254
REMARK   98  A    between atoms: _253  and  _256
REMARK   99  A    between atoms: _256  and  _257
REMARK  100  A    between atoms: _259  and  _261
REMARK  101  A    between atoms: _261  and  _262
REMARK  102  A    between atoms: _261  and  _264
REMARK  103  A    between atoms: _264  and  _265
REMARK  104  A    between atoms: _271  and  _273
REMARK  105  A    between atoms: _273  and  _274
REMARK  106  A    between atoms: _273  and  _276
REMARK  107  A    between atoms: _276  and  _277
REMARK  108  A    between atoms: _280  and  _282
REMARK  109  A    between atoms: _282  and  _283
REMARK  110  A    between atoms: _282  and  _285
REMARK  111  A    between atoms: _285  and  _286
REMARK  112  A    between atoms: _286  and  _287
REMARK  113  A    between atoms: _290  and  _292
REMARK  114  A    between atoms: _292  and  _293
REMARK  115  A    between atoms: _296  and  _298
REMARK  116  A    between atoms: _298  and  _299
REMARK                            x       y       z     vdW  Elec       q    Type
REMARK                         _______ _______ _______ _____ _____    ______ ____
ROOT
ATOM      1  CA  TRP A   2      21.831 -24.811  -1.214  0.00  0.00    +0.153 C 
ENDROOT
BRANCH   1   3
ATOM      2  C   VAL A   1      19.458 -25.083  -0.653  0.00  0.00    +0.238 C 
ATOM      3  N   TRP A   2      20.727 -25.349  -0.400  0.00  0.00    -0.297 N 
ATOM      4  H   TRP A   2      20.956 -25.964   0.407  0.00  0.00    +0.150 HD
ATOM      5  O   VAL A   1      19.101 -24.499  -1.676  0.00  0.00    -0.274 OA
BRANCH   2   6
ATOM      6  CA  VAL A   1      18.425 -25.550   0.364  0.00  0.00    +0.145 C 
BRANCH   6   7
ATOM      7  CB  VAL A   1      18.632 -24.780   1.676  0.00  0.00    +0.025 C 
ATOM      8  CG2 VAL A   1      17.549 -25.184   2.734  0.00  0.00    +0.002 C 
ATOM      9  CG1 VAL A   1      18.633 -23.259   1.357  0.00  0.00    +0.002 C 
ENDBRANCH   6   7
BRANCH   6  10
ATOM     10  N   VAL A   1      18.415 -26.967   0.567  0.00  0.00    -0.238 NA
ATOM     11  H   VAL A   1      19.286 -27.442   0.877  0.00  0.00    +0.142 HD
ENDBRANCH   6  10
ENDBRANCH   2   6
ENDBRANCH   1   3
BRANCH   1  12
ATOM     12  C   TRP A   2      21.714 -25.160  -2.664  0.00  0.00    +0.241 C 
ATOM     13  O   TRP A   2      21.660 -26.324  -3.047  0.00  0.00    -0.273 OA
ATOM     14  N   GLY A   3      21.689 -24.129  -3.491  0.00  0.00    -0.296 N 
ATOM     15  H   GLY A   3      21.734 -23.163  -3.108  0.00  0.00    +0.150 HD
BRANCH  14  16
ATOM     16  CA  GLY A   3      21.599 -24.327  -4.934  0.00  0.00    +0.163 C 
BRANCH  16  17
ATOM     17  C   GLY A   3      20.188 -24.651  -5.465  0.00  0.00    +0.229 C 
ATOM     18  O   GLY A   3      20.032 -24.808  -6.642  0.00  0.00    -0.286 OA
ENDBRANCH  16  17
ENDBRANCH  14  16
ENDBRANCH   1  12
BRANCH   1  19
ATOM     19  CB  TRP A   2      23.169 -25.299  -0.671  0.00  0.00    +0.057 C 
BRANCH  19  20
ATOM     20  CG  TRP A   2      24.375 -24.543  -1.153  0.00  0.00    -0.002 A 
ATOM     21  CD1 TRP A   2      24.768 -23.267  -0.760  0.00  0.00    +0.068 A 
ATOM     22  NE1 TRP A   2      25.927 -22.901  -1.381  0.00  0.00    -0.352 N 
ATOM     23  HE1 TRP A   2      26.413 -21.991  -1.251  0.00  0.00    +0.166 HD
ATOM     24  CE2 TRP A   2      26.346 -23.888  -2.183  0.00  0.00    +0.056 A 
ATOM     25  CZ2 TRP A   2      27.452 -23.973  -2.994  0.00  0.00    +0.017 A 
ATOM     26  CH2 TRP A   2      27.614 -25.133  -3.747  0.00  0.00    +0.001 A 
ATOM     27  CZ3 TRP A   2      26.704 -26.175  -3.664  0.00  0.00    +0.000 A 
ATOM     28  CE3 TRP A   2      25.579 -26.106  -2.843  0.00  0.00    +0.001 A 
ATOM     29  CD2 TRP A   2      25.388 -24.979  -2.070  0.00  0.00    +0.013 A 
ENDBRANCH  19  20
ENDBRANCH   1  19
TORSDOF 9
REMARK  Name = ../refined-set-2016/4ai5/4ai5_pocket.pdb
REMARK  116 active torsions:
REMARK  status: ('A' for Active; 'I' for Inactive)
REMARK    1  A    between atoms: _1  and  _3
REMARK    2  A    between atoms: _3  and  _4
REMARK    3  A    between atoms: _3  and  _6
REMARK    4  A    between atoms: _8  and  _10
REMARK    5  A    between atoms: _10  and  _11
REMARK    6  A    between atoms: _14  and  _16
REMARK    7  A    between atoms: _16  and  _17
REMARK    8  A    between atoms: _16  and  _19
REMARK    9  A    between atoms: _19  and  _20
REMARK   10  A    between atoms: _26  and  _28
REMARK   11  A    between atoms: _28  and  _29
REMARK   12  A    between atoms: _28  and  _31
REMARK   13  A    between atoms: _31  and  _32
REMARK   14  A    between atoms: _37  and  _38
REMARK   15  A    between atoms: _40  and  _42
REMARK   16  A    between atoms: _42  and  _43
REMARK   17  A    between atoms: _42  and  _45
REMARK   18  A    between atoms: _45  and  _46
REMARK   19  A    between atoms: _52  and  _54
REMARK   20  A    between atoms: _54  and  _55
REMARK   21  A    between atoms: _54  and  _57
REMARK   22  A    between atoms: _57  and  _58
REMARK   23  A    between atoms: _63  and  _65
REMARK   24  A    between atoms: _65  and  _66
REMARK   25  A    between atoms: _65  and  _68
REMARK   26  A    between atoms: _71  and  _73
REMARK   27  A    between atoms: _73  and  _74
REMARK   28  A    between atoms: _73  and  _76
REMARK   29  A    between atoms: _76  and  _77
REMARK   30  A    between atoms: _87  and  _89
REMARK   31  A    between atoms: _89  and  _90
REMARK   32  A    between atoms: _92  and  _94
REMARK   33  A    between atoms: _94  and  _95
REMARK   34  A    between atoms: _94  and  _97
REMARK   35  A    between atoms: _97  and  _98
REMARK   36  A    between atoms: _101  and  _103
REMARK   37  A    between atoms: _103  and  _104
REMARK   38  A    between atoms: _103  and  _106
REMARK   39  A    between atoms: _106  and  _107
REMARK   40  A    between atoms: _110  and  _112
REMARK   41  A    between atoms: _112  and  _113
REMARK   42  A    between atoms: _112  and  _115
REMARK   43  A    between atoms: _115  and  _116
REMARK   44  A    between atoms: _116  and  _117
REMARK   45  A    between atoms: _120  and  _122
REMARK   46  A    between atoms: _122  and  _123
REMARK   47  A    between atoms: _122  and  _125
REMARK   48  A    between atoms: _125  and  _126
REMARK   49  A    between atoms: _128  and  _130
REMARK   50  A    between atoms: _130  and  _131
REMARK   51  A    between atoms: _130  and  _133
REMARK   52  A    between atoms: _133  and  _134
REMARK   53  A    between atoms: _139  and  _141
REMARK   54  A    between atoms: _141  and  _142
REMARK   55  A    between atoms: _145  and  _147
REMARK   56  A    between atoms: _147  and  _148
REMARK   57  A    between atoms: _147  and  _150
REMARK   58  A    between atoms: _150  and  _151
REMARK   59  A    between atoms: _154  and  _156
REMARK   60  A    between atoms: _156  and  _157
REMARK   61  A    between atoms: _156  and  _159
REMARK   62  A    between atoms: _159  and  _160
REMARK   63  A    between atoms: _162  and  _164
REMARK   64  A    between atoms: _164  and  _165
REMARK   65  A    between atoms: _164  and  _167
REMARK   66  A    between atoms: _167  and  _168
REMARK   67  A    between atoms: _178  and  _180
REMARK   68  A    between atoms: _180  and  _181
REMARK   69  A    between atoms: _180  and  _183
REMARK   70  A    between atoms: _183  and  _184
REMARK   71  A    between atoms: _187  and  _189
REMARK   72  A    between atoms: _189  and  _190
REMARK   73  A    between atoms: _189  and  _192
REMARK   74  A    between atoms: _192  and  _193
REMARK   75  A    between atoms: _196  and  _198
REMARK   76  A    between atoms: _198  and  _199
REMARK   77  A    between atoms: _198  and  _201
REMARK   78  A    between atoms: _201  and  _202
REMARK   79  A    between atoms: _205  and  _207
REMARK   80  A    between atoms: _207  and  _208
REMARK   81  A    between atoms: _207  and  _210
REMARK   82  A    between atoms: _210  and  _211
REMARK   83  A    between atoms: _211  and  _212
REMARK   84  A    between atoms: _212  and  _213
REMARK   85  A    between atoms: _222  and  _224
REMARK   86  A    between atoms: _224  and  _225
REMARK   87  A    between atoms: _224  and  _227
REMARK   88  A    between atoms: _230  and  _232
REMARK   89  A    between atoms: _232  and  _233
REMARK   90  A    between atoms: _232  and  _235
REMARK   91  A    between atoms: _235  and  _236
REMARK   92  A    between atoms: _239  and  _241
REMARK   93  A    between atoms: _241  and  _242
REMARK   94  A    between atoms: _241  and  _244
REMARK   95  A    between atoms: _244  and  _245
REMARK   96  A    between atoms: _251  and  _253
REMARK   97  A    between atoms: _253  and  _254
REMARK   98  A    between atoms: _253  and  _256
REMARK   99  A    between atoms: _256  and  _257
REMARK  100  A    between atoms: _259  and  _261
REMARK  101  A    between atoms: _261  and  _262
REMARK  102  A    between atoms: _261  and  _264
REMARK  103  A    between atoms: _264  and  _265
REMARK  104  A    between atoms: _271  and  _273
REMARK  105  A    between atoms: _273  and  _274
REMARK  106  A    between atoms: _273  and  _276
REMARK  107  A    between atoms: _276  and  _277
REMARK  108  A    between atoms: _280  and  _282
REMARK  109  A    between atoms: _282  and  _283
REMARK  110  A    between atoms: _282  and  _285
REMARK  111  A    between atoms: _285  and  _286
REMARK  112  A    between atoms: _286  and  _287
REMARK  113  A    between atoms: _290  and  _292
REMARK  114  A    between atoms: _292  and  _293
REMARK  115  A    between atoms: _296  and  _298
REMARK  116  A    between atoms: _298  and  _299
REMARK                            x       y       z     vdW  Elec       q    Type
REMARK                         _______ _______ _______ _____ _____    ______ ____
ROOT
ATOM      1  CA  LEU A   1      19.273 -16.146   3.374  0.00  0.00    +0.133 C 
ENDROOT
BRANCH   1   2
ATOM      2  N   LEU A   1      18.001 -15.570   3.808  0.00  0.00    -0.239 NA
ATOM      3  H   LEU A   1      17.144 -15.732   3.241  0.00  0.00    +0.142 HD
ENDBRANCH   1   2
BRANCH   1   4
ATOM      4  C   LEU A   1      20.386 -15.082   3.178  0.00  0.00    +0.224 C 
ATOM      5  O   LEU A   1      21.553 -15.296   3.569  0.00  0.00    -0.287 OA
ENDBRANCH   1   4
BRANCH   1   6
ATOM      6  CB  LEU A   1      19.134 -16.881   1.996  0.00  0.00    +0.025 C 
BRANCH   6   7
ATOM      7  CG  LEU A   1      18.839 -18.381   1.959  0.00  0.00    +0.002 C 
ATOM      8  CD2 LEU A   1      19.439 -19.176   3.149  0.00  0.00    +0.000 C 
ATOM      9  CD1 LEU A   1      19.250 -18.951   0.588  0.00  0.00    +0.000 C 
ENDBRANCH   6   7
ENDBRANCH   1   6
TORSDOF 4
REMARK  Name = ../refined-set-2016/4ai5/4ai5_pocket.pdb
REMARK  116 active torsions:
REMARK  status: ('A' for Active; 'I' for Inactive)
REMARK    1  A    between atoms: _1  and  _3
REMARK    2  A    between atoms: _3  and  _4
REMARK    3  A    between atoms: _3  and  _6
REMARK    4  A    between atoms: _8  and  _10
REMARK    5  A    between atoms: _10  and  _11
REMARK    6  A    between atoms: _14  and  _16
REMARK    7  A    between atoms: _16  and  _17
REMARK    8  A    between atoms: _16  and  _19
REMARK    9  A    between atoms: _19  and  _20
REMARK   10  A    between atoms: _26  and  _28
REMARK   11  A    between atoms: _28  and  _29
REMARK   12  A    between atoms: _28  and  _31
REMARK   13  A    between atoms: _31  and  _32
REMARK   14  A    between atoms: _37  and  _38
REMARK   15  A    between atoms: _40  and  _42
REMARK   16  A    between atoms: _42  and  _43
REMARK   17  A    between atoms: _42  and  _45
REMARK   18  A    between atoms: _45  and  _46
REMARK   19  A    between atoms: _52  and  _54
REMARK   20  A    between atoms: _54  and  _55
REMARK   21  A    between atoms: _54  and  _57
REMARK   22  A    between atoms: _57  and  _58
REMARK   23  A    between atoms: _63  and  _65
REMARK   24  A    between atoms: _65  and  _66
REMARK   25  A    between atoms: _65  and  _68
REMARK   26  A    between atoms: _71  and  _73
REMARK   27  A    between atoms: _73  and  _74
REMARK   28  A    between atoms: _73  and  _76
REMARK   29  A    between atoms: _76  and  _77
REMARK   30  A    between atoms: _87  and  _89
REMARK   31  A    between atoms: _89  and  _90
REMARK   32  A    between atoms: _92  and  _94
REMARK   33  A    between atoms: _94  and  _95
REMARK   34  A    between atoms: _94  and  _97
REMARK   35  A    between atoms: _97  and  _98
REMARK   36  A    between atoms: _101  and  _103
REMARK   37  A    between atoms: _103  and  _104
REMARK   38  A    between atoms: _103  and  _106
REMARK   39  A    between atoms: _106  and  _107
REMARK   40  A    between atoms: _110  and  _112
REMARK   41  A    between atoms: _112  and  _113
REMARK   42  A    between atoms: _112  and  _115
REMARK   43  A    between atoms: _115  and  _116
REMARK   44  A    between atoms: _116  and  _117
REMARK   45  A    between atoms: _120  and  _122
REMARK   46  A    between atoms: _122  and  _123
REMARK   47  A    between atoms: _122  and  _125
REMARK   48  A    between atoms: _125  and  _126
REMARK   49  A    between atoms: _128  and  _130
REMARK   50  A    between atoms: _130  and  _131
REMARK   51  A    between atoms: _130  and  _133
REMARK   52  A    between atoms: _133  and  _134
REMARK   53  A    between atoms: _139  and  _141
REMARK   54  A    between atoms: _141  and  _142
REMARK   55  A    between atoms: _145  and  _147
REMARK   56  A    between atoms: _147  and  _148
REMARK   57  A    between atoms: _147  and  _150
REMARK   58  A    between atoms: _150  and  _151
REMARK   59  A    between atoms: _154  and  _156
REMARK   60  A    between atoms: _156  and  _157
REMARK   61  A    between atoms: _156  and  _159
REMARK   62  A    between atoms: _159  and  _160
REMARK   63  A    between atoms: _162  and  _164
REMARK   64  A    between atoms: _164  and  _165
REMARK   65  A    between atoms: _164  and  _167
REMARK   66  A    between atoms: _167  and  _168
REMARK   67  A    between atoms: _178  and  _180
REMARK   68  A    between atoms: _180  and  _181
REMARK   69  A    between atoms: _180  and  _183
REMARK   70  A    between atoms: _183  and  _184
REMARK   71  A    between atoms: _187  and  _189
REMARK   72  A    between atoms: _189  and  _190
REMARK   73  A    between atoms: _189  and  _192
REMARK   74  A    between atoms: _192  and  _193
REMARK   75  A    between atoms: _196  and  _198
REMARK   76  A    between atoms: _198  and  _199
REMARK   77  A    between atoms: _198  and  _201
REMARK   78  A    between atoms: _201  and  _202
REMARK   79  A    between atoms: _205  and  _207
REMARK   80  A    between atoms: _207  and  _208
REMARK   81  A    between atoms: _207  and  _210
REMARK   82  A    between atoms: _210  and  _211
REMARK   83  A    between atoms: _211  and  _212
REMARK   84  A    between atoms: _212  and  _213
REMARK   85  A    between atoms: _222  and  _224
REMARK   86  A    between atoms: _224  and  _225
REMARK   87  A    between atoms: _224  and  _227
REMARK   88  A    between atoms: _230  and  _232
REMARK   89  A    between atoms: _232  and  _233
REMARK   90  A    between atoms: _232  and  _235
REMARK   91  A    between atoms: _235  and  _236
REMARK   92  A    between atoms: _239  and  _241
REMARK   93  A    between atoms: _241  and  _242
REMARK   94  A    between atoms: _241  and  _244
REMARK   95  A    between atoms: _244  and  _245
REMARK   96  A    between atoms: _251  and  _253
REMARK   97  A    between atoms: _253  and  _254
REMARK   98  A    between atoms: _253  and  _256
REMARK   99  A    between atoms: _256  and  _257
REMARK  100  A    between atoms: _259  and  _261
REMARK  101  A    between atoms: _261  and  _262
REMARK  102  A    between atoms: _261  and  _264
REMARK  103  A    between atoms: _264  and  _265
REMARK  104  A    between atoms: _271  and  _273
REMARK  105  A    between atoms: _273  and  _274
REMARK  106  A    between atoms: _273  and  _276
REMARK  107  A    between atoms: _276  and  _277
REMARK  108  A    between atoms: _280  and  _282
REMARK  109  A    between atoms: _282  and  _283
REMARK  110  A    between atoms: _282  and  _285
REMARK  111  A    between atoms: _285  and  _286
REMARK  112  A    between atoms: _286  and  _287
REMARK  113  A    between atoms: _290  and  _292
REMARK  114  A    between atoms: _292  and  _293
REMARK  115  A    between atoms: _296  and  _298
REMARK  116  A    between atoms: _298  and  _299
REMARK                            x       y       z     vdW  Elec       q    Type
REMARK                         _______ _______ _______ _____ _____    ______ ____
ROOT
ATOM      1  CA  GLU A   2      25.171 -14.539   4.659  0.00  0.00    +0.149 C 
ENDROOT
BRANCH   1   4
ATOM      2  C   LEU A   1      23.842 -14.726   6.674  0.00  0.00    +0.238 C 
ATOM      3  O   LEU A   1      24.853 -14.757   7.361  0.00  0.00    -0.274 OA
ATOM      4  N   GLU A   2      23.887 -14.601   5.355  0.00  0.00    -0.297 N 
ATOM      5  H   GLU A   2      23.002 -14.547   4.811  0.00  0.00    +0.150 HD
BRANCH   2   6
ATOM      6  CA  LEU A   1      22.416 -14.782   7.275  0.00  0.00    +0.145 C 
BRANCH   6   7
ATOM      7  N   LEU A   1      21.516 -13.831   6.585  0.00  0.00    -0.238 NA
ATOM      8  H   LEU A   1      20.671 -14.176   6.086  0.00  0.00    +0.142 HD
ENDBRANCH   6   7
BRANCH   6   9
ATOM      9  CB  LEU A   1      21.863 -16.185   7.234  0.00  0.00    +0.026 C 
BRANCH   9  10
ATOM     10  CG  LEU A   1      20.610 -16.394   8.113  0.00  0.00    +0.002 C 
ATOM     11  CD2 LEU A   1      20.999 -16.132   9.567  0.00  0.00    +0.000 C 
ATOM     12  CD1 LEU A   1      19.986 -17.803   7.920  0.00  0.00    +0.000 C 
ENDBRANCH   9  10
ENDBRANCH   6   9
ENDBRANCH   2   6
ENDBRANCH   1   4
BRANCH   1  13
ATOM     13  C   GLU A   2      26.024 -13.342   5.149  0.00  0.00    +0.241 C 
ATOM     14  N   SER A   3      25.356 -12.237   5.479  0.00  0.00    -0.296 N 
ATOM     15  H   SER A   3      24.317 -12.238   5.438  0.00  0.00    +0.150 HD
ATOM     16  O   GLU A   2      27.269 -13.452   5.290  0.00  0.00    -0.273 OA
BRANCH  14  17
ATOM     17  CA  SER A   3      26.055 -11.024   5.897  0.00  0.00    +0.166 C 
BRANCH  17  18
ATOM     18  C   SER A   3      26.728 -11.185   7.253  0.00  0.00    +0.229 C 
ATOM     19  O   SER A   3      27.556 -10.391   7.604  0.00  0.00    -0.286 OA
ENDBRANCH  17  18
BRANCH  17  20
ATOM     20  CB  SER A   3      25.081  -9.816   5.947  0.00  0.00    +0.165 C 
BRANCH  20  21
ATOM     21  OG  SER A   3      24.187  -9.915   7.039  0.00  0.00    -0.380 OA
ATOM     22  H   SER A   3      23.654 -10.745   6.953  0.00  0.00    +0.211 HD
ENDBRANCH  20  21
ENDBRANCH  17  20
ENDBRANCH  14  17
ENDBRANCH   1  13
BRANCH   1  23
ATOM     23  CB  GLU A   2      24.932 -14.468   3.175  0.00  0.00    +0.041 C 
BRANCH  23  24
ATOM     24  CG  GLU A   2      26.197 -14.775   2.435  0.00  0.00    +0.116 C 
BRANCH  24  25
ATOM     25  CD  GLU A   2      26.594 -16.237   2.530  0.00  0.00    +0.365 C 
ATOM     26  OE2 GLU A   2      27.812 -16.490   2.712  0.00  0.00    -0.246 OA
ATOM     27  OE1 GLU A   2      25.676 -17.062   2.386  0.00  0.00    -0.246 OA
ENDBRANCH  24  25
ENDBRANCH  23  24
ENDBRANCH   1  23
TORSDOF 13
REMARK  Name = ../refined-set-2016/4ai5/4ai5_pocket.pdb
REMARK  116 active torsions:
REMARK  status: ('A' for Active; 'I' for Inactive)
REMARK    1  A    between atoms: _1  and  _3
REMARK    2  A    between atoms: _3  and  _4
REMARK    3  A    between atoms: _3  and  _6
REMARK    4  A    between atoms: _8  and  _10
REMARK    5  A    between atoms: _10  and  _11
REMARK    6  A    between atoms: _14  and  _16
REMARK    7  A    between atoms: _16  and  _17
REMARK    8  A    between atoms: _16  and  _19
REMARK    9  A    between atoms: _19  and  _20
REMARK   10  A    between atoms: _26  and  _28
REMARK   11  A    between atoms: _28  and  _29
REMARK   12  A    between atoms: _28  and  _31
REMARK   13  A    between atoms: _31  and  _32
REMARK   14  A    between atoms: _37  and  _38
REMARK   15  A    between atoms: _40  and  _42
REMARK   16  A    between atoms: _42  and  _43
REMARK   17  A    between atoms: _42  and  _45
REMARK   18  A    between atoms: _45  and  _46
REMARK   19  A    between atoms: _52  and  _54
REMARK   20  A    between atoms: _54  and  _55
REMARK   21  A    between atoms: _54  and  _57
REMARK   22  A    between atoms: _57  and  _58
REMARK   23  A    between atoms: _63  and  _65
REMARK   24  A    between atoms: _65  and  _66
REMARK   25  A    between atoms: _65  and  _68
REMARK   26  A    between atoms: _71  and  _73
REMARK   27  A    between atoms: _73  and  _74
REMARK   28  A    between atoms: _73  and  _76
REMARK   29  A    between atoms: _76  and  _77
REMARK   30  A    between atoms: _87  and  _89
REMARK   31  A    between atoms: _89  and  _90
REMARK   32  A    between atoms: _92  and  _94
REMARK   33  A    between atoms: _94  and  _95
REMARK   34  A    between atoms: _94  and  _97
REMARK   35  A    between atoms: _97  and  _98
REMARK   36  A    between atoms: _101  and  _103
REMARK   37  A    between atoms: _103  and  _104
REMARK   38  A    between atoms: _103  and  _106
REMARK   39  A    between atoms: _106  and  _107
REMARK   40  A    between atoms: _110  and  _112
REMARK   41  A    between atoms: _112  and  _113
REMARK   42  A    between atoms: _112  and  _115
REMARK   43  A    between atoms: _115  and  _116
REMARK   44  A    between atoms: _116  and  _117
REMARK   45  A    between atoms: _120  and  _122
REMARK   46  A    between atoms: _122  and  _123
REMARK   47  A    between atoms: _122  and  _125
REMARK   48  A    between atoms: _125  and  _126
REMARK   49  A    between atoms: _128  and  _130
REMARK   50  A    between atoms: _130  and  _131
REMARK   51  A    between atoms: _130  and  _133
REMARK   52  A    between atoms: _133  and  _134
REMARK   53  A    between atoms: _139  and  _141
REMARK   54  A    between atoms: _141  and  _142
REMARK   55  A    between atoms: _145  and  _147
REMARK   56  A    between atoms: _147  and  _148
REMARK   57  A    between atoms: _147  and  _150
REMARK   58  A    between atoms: _150  and  _151
REMARK   59  A    between atoms: _154  and  _156
REMARK   60  A    between atoms: _156  and  _157
REMARK   61  A    between atoms: _156  and  _159
REMARK   62  A    between atoms: _159  and  _160
REMARK   63  A    between atoms: _162  and  _164
REMARK   64  A    between atoms: _164  and  _165
REMARK   65  A    between atoms: _164  and  _167
REMARK   66  A    between atoms: _167  and  _168
REMARK   67  A    between atoms: _178  and  _180
REMARK   68  A    between atoms: _180  and  _181
REMARK   69  A    between atoms: _180  and  _183
REMARK   70  A    between atoms: _183  and  _184
REMARK   71  A    between atoms: _187  and  _189
REMARK   72  A    between atoms: _189  and  _190
REMARK   73  A    between atoms: _189  and  _192
REMARK   74  A    between atoms: _192  and  _193
REMARK   75  A    between atoms: _196  and  _198
REMARK   76  A    between atoms: _198  and  _199
REMARK   77  A    between atoms: _198  and  _201
REMARK   78  A    between atoms: _201  and  _202
REMARK   79  A    between atoms: _205  and  _207
REMARK   80  A    between atoms: _207  and  _208
REMARK   81  A    between atoms: _207  and  _210
REMARK   82  A    between atoms: _210  and  _211
REMARK   83  A    between atoms: _211  and  _212
REMARK   84  A    between atoms: _212  and  _213
REMARK   85  A    between atoms: _222  and  _224
REMARK   86  A    between atoms: _224  and  _225
REMARK   87  A    between atoms: _224  and  _227
REMARK   88  A    between atoms: _230  and  _232
REMARK   89  A    between atoms: _232  and  _233
REMARK   90  A    between atoms: _232  and  _235
REMARK   91  A    between atoms: _235  and  _236
REMARK   92  A    between atoms: _239  and  _241
REMARK   93  A    between atoms: _241  and  _242
REMARK   94  A    between atoms: _241  and  _244
REMARK   95  A    between atoms: _244  and  _245
REMARK   96  A    between atoms: _251  and  _253
REMARK   97  A    between atoms: _253  and  _254
REMARK   98  A    between atoms: _253  and  _256
REMARK   99  A    between atoms: _256  and  _257
REMARK  100  A    between atoms: _259  and  _261
REMARK  101  A    between atoms: _261  and  _262
REMARK  102  A    between atoms: _261  and  _264
REMARK  103  A    between atoms: _264  and  _265
REMARK  104  A    between atoms: _271  and  _273
REMARK  105  A    between atoms: _273  and  _274
REMARK  106  A    between atoms: _273  and  _276
REMARK  107  A    between atoms: _276  and  _277
REMARK  108  A    between atoms: _280  and  _282
REMARK  109  A    between atoms: _282  and  _283
REMARK  110  A    between atoms: _282  and  _285
REMARK  111  A    between atoms: _285  and  _286
REMARK  112  A    between atoms: _286  and  _287
REMARK  113  A    between atoms: _290  and  _292
REMARK  114  A    between atoms: _292  and  _293
REMARK  115  A    between atoms: _296  and  _298
REMARK  116  A    between atoms: _298  and  _299
REMARK                            x       y       z     vdW  Elec       q    Type
REMARK                         _______ _______ _______ _____ _____    ______ ____
ROOT
ATOM      1  CA  HIS A   1      29.491 -14.970   8.071  0.00  0.00    +0.151 C 
ENDROOT
BRANCH   1   2
ATOM      2  C   HIS A   1      30.930 -14.514   8.350  0.00  0.00    +0.239 C 
ATOM      3  O   HIS A   1      31.694 -15.239   9.003  0.00  0.00    -0.274 OA
ATOM      4  N   ALA A   2      31.323 -13.345   7.828  0.00  0.00    -0.298 N 
ATOM      5  H   ALA A   2      30.603 -12.692   7.458  0.00  0.00    +0.150 HD
BRANCH   4   6
ATOM      6  CA  ALA A   2      32.747 -12.953   7.761  0.00  0.00    +0.137 C 
ATOM      7  CB  ALA A   2      32.931 -11.525   7.290  0.00  0.00    +0.030 C 
BRANCH   6   8
ATOM      8  C   ALA A   2      33.448 -13.114   9.075  0.00  0.00    +0.227 C 
ATOM      9  O   ALA A   2      32.995 -12.585  10.051  0.00  0.00    -0.286 OA
ENDBRANCH   6   8
ENDBRANCH   4   6
ENDBRANCH   1   2
BRANCH   1  10
ATOM     10  N   HIS A   1      28.456 -13.947   8.164  0.00  0.00    -0.238 NA
ATOM     11  H   HIS A   1      27.976 -13.641   7.294  0.00  0.00    +0.142 HD
ENDBRANCH   1  10
BRANCH   1  12
ATOM     12  CB  HIS A   1      29.370 -15.574   6.670  0.00  0.00    +0.074 C 
BRANCH  12  13
ATOM     13  CG  HIS A   1      30.464 -16.483   6.336  0.00  0.00    +0.082 A 
ATOM     14  CD2 HIS A   1      30.958 -17.613   7.002  0.00  0.00    +0.115 A 
ATOM     15  NE2 HIS A   1      32.018 -18.081   6.282  0.00  0.00    -0.221 NA
ATOM     16  CE1 HIS A   1      32.203 -17.284   5.194  0.00  0.00    +0.199 A 
ATOM     17  ND1 HIS A   1      31.268 -16.284   5.244  0.00  0.00    -0.227 NA
ENDBRANCH  12  13
ENDBRANCH   1  12
TORSDOF 6
REMARK  Name = ../refined-set-2016/4ai5/4ai5_pocket.pdb
REMARK  116 active torsions:
REMARK  status: ('A' for Active; 'I' for Inactive)
REMARK    1  A    between atoms: _1  and  _3
REMARK    2  A    between atoms: _3  and  _4
REMARK    3  A    between atoms: _3  and  _6
REMARK    4  A    between atoms: _8  and  _10
REMARK    5  A    between atoms: _10  and  _11
REMARK    6  A    between atoms: _14  and  _16
REMARK    7  A    between atoms: _16  and  _17
REMARK    8  A    between atoms: _16  and  _19
REMARK    9  A    between atoms: _19  and  _20
REMARK   10  A    between atoms: _26  and  _28
REMARK   11  A    between atoms: _28  and  _29
REMARK   12  A    between atoms: _28  and  _31
REMARK   13  A    between atoms: _31  and  _32
REMARK   14  A    between atoms: _37  and  _38
REMARK   15  A    between atoms: _40  and  _42
REMARK   16  A    between atoms: _42  and  _43
REMARK   17  A    between atoms: _42  and  _45
REMARK   18  A    between atoms: _45  and  _46
REMARK   19  A    between atoms: _52  and  _54
REMARK   20  A    between atoms: _54  and  _55
REMARK   21  A    between atoms: _54  and  _57
REMARK   22  A    between atoms: _57  and  _58
REMARK   23  A    between atoms: _63  and  _65
REMARK   24  A    between atoms: _65  and  _66
REMARK   25  A    between atoms: _65  and  _68
REMARK   26  A    between atoms: _71  and  _73
REMARK   27  A    between atoms: _73  and  _74
REMARK   28  A    between atoms: _73  and  _76
REMARK   29  A    between atoms: _76  and  _77
REMARK   30  A    between atoms: _87  and  _89
REMARK   31  A    between atoms: _89  and  _90
REMARK   32  A    between atoms: _92  and  _94
REMARK   33  A    between atoms: _94  and  _95
REMARK   34  A    between atoms: _94  and  _97
REMARK   35  A    between atoms: _97  and  _98
REMARK   36  A    between atoms: _101  and  _103
REMARK   37  A    between atoms: _103  and  _104
REMARK   38  A    between atoms: _103  and  _106
REMARK   39  A    between atoms: _106  and  _107
REMARK   40  A    between atoms: _110  and  _112
REMARK   41  A    between atoms: _112  and  _113
REMARK   42  A    between atoms: _112  and  _115
REMARK   43  A    between atoms: _115  and  _116
REMARK   44  A    between atoms: _116  and  _117
REMARK   45  A    between atoms: _120  and  _122
REMARK   46  A    between atoms: _122  and  _123
REMARK   47  A    between atoms: _122  and  _125
REMARK   48  A    between atoms: _125  and  _126
REMARK   49  A    between atoms: _128  and  _130
REMARK   50  A    between atoms: _130  and  _131
REMARK   51  A    between atoms: _130  and  _133
REMARK   52  A    between atoms: _133  and  _134
REMARK   53  A    between atoms: _139  and  _141
REMARK   54  A    between atoms: _141  and  _142
REMARK   55  A    between atoms: _145  and  _147
REMARK   56  A    between atoms: _147  and  _148
REMARK   57  A    between atoms: _147  and  _150
REMARK   58  A    between atoms: _150  and  _151
REMARK   59  A    between atoms: _154  and  _156
REMARK   60  A    between atoms: _156  and  _157
REMARK   61  A    between atoms: _156  and  _159
REMARK   62  A    between atoms: _159  and  _160
REMARK   63  A    between atoms: _162  and  _164
REMARK   64  A    between atoms: _164  and  _165
REMARK   65  A    between atoms: _164  and  _167
REMARK   66  A    between atoms: _167  and  _168
REMARK   67  A    between atoms: _178  and  _180
REMARK   68  A    between atoms: _180  and  _181
REMARK   69  A    between atoms: _180  and  _183
REMARK   70  A    between atoms: _183  and  _184
REMARK   71  A    between atoms: _187  and  _189
REMARK   72  A    between atoms: _189  and  _190
REMARK   73  A    between atoms: _189  and  _192
REMARK   74  A    between atoms: _192  and  _193
REMARK   75  A    between atoms: _196  and  _198
REMARK   76  A    between atoms: _198  and  _199
REMARK   77  A    between atoms: _198  and  _201
REMARK   78  A    between atoms: _201  and  _202
REMARK   79  A    between atoms: _205  and  _207
REMARK   80  A    between atoms: _207  and  _208
REMARK   81  A    between atoms: _207  and  _210
REMARK   82  A    between atoms: _210  and  _211
REMARK   83  A    between atoms: _211  and  _212
REMARK   84  A    between atoms: _212  and  _213
REMARK   85  A    between atoms: _222  and  _224
REMARK   86  A    between atoms: _224  and  _225
REMARK   87  A    between atoms: _224  and  _227
REMARK   88  A    between atoms: _230  and  _232
REMARK   89  A    between atoms: _232  and  _233
REMARK   90  A    between atoms: _232  and  _235
REMARK   91  A    between atoms: _235  and  _236
REMARK   92  A    between atoms: _239  and  _241
REMARK   93  A    between atoms: _241  and  _242
REMARK   94  A    between atoms: _241  and  _244
REMARK   95  A    between atoms: _244  and  _245
REMARK   96  A    between atoms: _251  and  _253
REMARK   97  A    between atoms: _253  and  _254
REMARK   98  A    between atoms: _253  and  _256
REMARK   99  A    between atoms: _256  and  _257
REMARK  100  A    between atoms: _259  and  _261
REMARK  101  A    between atoms: _261  and  _262
REMARK  102  A    between atoms: _261  and  _264
REMARK  103  A    between atoms: _264  and  _265
REMARK  104  A    between atoms: _271  and  _273
REMARK  105  A    between atoms: _273  and  _274
REMARK  106  A    between atoms: _273  and  _276
REMARK  107  A    between atoms: _276  and  _277
REMARK  108  A    between atoms: _280  and  _282
REMARK  109  A    between atoms: _282  and  _283
REMARK  110  A    between atoms: _282  and  _285
REMARK  111  A    between atoms: _285  and  _286
REMARK  112  A    between atoms: _286  and  _287
REMARK  113  A    between atoms: _290  and  _292
REMARK  114  A    between atoms: _292  and  _293
REMARK  115  A    between atoms: _296  and  _298
REMARK  116  A    between atoms: _298  and  _299
REMARK                            x       y       z     vdW  Elec       q    Type
REMARK                         _______ _______ _______ _____ _____    ______ ____
ROOT
ATOM      1  CA  TRP A   3      29.419 -20.932   7.462  0.00  0.00    +0.153 C 
ENDROOT
BRANCH   1   4
ATOM      2  C   SER A   2      31.110 -20.502   9.093  0.00  0.00    +0.243 C 
ATOM      3  O   SER A   2      30.282 -20.002   9.850  0.00  0.00    -0.273 OA
ATOM      4  N   TRP A   3      30.789 -20.940   7.886  0.00  0.00    -0.297 N 
ATOM      5  H   TRP A   3      31.530 -21.290   7.245  0.00  0.00    +0.150 HD
BRANCH   2   6
ATOM      6  CA  SER A   2      32.568 -20.606   9.477  0.00  0.00    +0.178 C 
BRANCH   6   8
ATOM      7  C   LEU A   1      33.184 -18.337  10.076  0.00  0.00    +0.238 C 
ATOM      8  N   SER A   2      32.930 -19.583  10.467  0.00  0.00    -0.295 N 
ATOM      9  H   SER A   2      32.988 -19.833  11.475  0.00  0.00    +0.150 HD
ATOM     10  O   LEU A   1      33.291 -18.017   8.896  0.00  0.00    -0.274 OA
BRANCH   7  11
ATOM     11  CA  LEU A   1      33.358 -17.284  11.186  0.00  0.00    +0.145 C 
BRANCH  11  12
ATOM     12  N   LEU A   1      33.847 -16.057  10.545  0.00  0.00    -0.238 NA
ATOM     13  H   LEU A   1      33.332 -15.685   9.722  0.00  0.00    +0.142 HD
ENDBRANCH  11  12
BRANCH  11  14
ATOM     14  CB  LEU A   1      32.044 -17.049  11.898  0.00  0.00    +0.026 C 
BRANCH  14  15
ATOM     15  CG  LEU A   1      31.991 -15.959  12.967  0.00  0.00    +0.002 C 
ATOM     16  CD2 LEU A   1      32.617 -16.427  14.291  0.00  0.00    +0.000 C 
ATOM     17  CD1 LEU A   1      30.542 -15.527  13.180  0.00  0.00    +0.000 C 
ENDBRANCH  14  15
ENDBRANCH  11  14
ENDBRANCH   7  11
ENDBRANCH   6   8
BRANCH   6  18
ATOM     18  CB  SER A   2      32.851 -21.978   9.997  0.00  0.00    +0.166 C 
BRANCH  18  19
ATOM     19  OG  SER A   2      31.880 -22.399  10.924  0.00  0.00    -0.380 OA
ATOM     20  H   SER A   2      31.865 -21.773  11.691  0.00  0.00    +0.211 HD
ENDBRANCH  18  19
ENDBRANCH   6  18
ENDBRANCH   2   6
ENDBRANCH   1   4
BRANCH   1  21
ATOM     21  C   TRP A   3      28.576 -21.838   8.330  0.00  0.00    +0.241 C 
ATOM     22  O   TRP A   3      27.446 -21.490   8.706  0.00  0.00    -0.273 OA
ATOM     23  N   LEU A   4      29.104 -22.988   8.686  0.00  0.00    -0.298 N 
ATOM     24  H   LEU A   4      30.069 -23.236   8.387  0.00  0.00    +0.150 HD
BRANCH  23  25
ATOM     25  CA  LEU A   4      28.324 -23.918   9.507  0.00  0.00    +0.137 C 
BRANCH  25  26
ATOM     26  C   LEU A   4      27.971 -23.277  10.827  0.00  0.00    +0.227 C 
ATOM     27  O   LEU A   4      26.870 -23.529  11.354  0.00  0.00    -0.286 OA
ENDBRANCH  25  26
BRANCH  25  28
ATOM     28  CB  LEU A   4      29.046 -25.226   9.730  0.00  0.00    +0.028 C 
BRANCH  28  29
ATOM     29  CG  LEU A   4      28.302 -26.350  10.451  0.00  0.00    +0.002 C 
ATOM     30  CD2 LEU A   4      29.212 -27.601  10.391  0.00  0.00    +0.000 C 
ATOM     31  CD1 LEU A   4      26.898 -26.641   9.872  0.00  0.00    +0.000 C 
ENDBRANCH  28  29
ENDBRANCH  25  28
ENDBRANCH  23  25
ENDBRANCH   1  21
BRANCH   1  32
ATOM     32  CB  TRP A   3      29.304 -21.234   5.977  0.00  0.00    +0.057 C 
BRANCH  32  33
ATOM     33  CG  TRP A   3      27.877 -21.296   5.568  0.00  0.00    -0.002 A 
ATOM     34  CD2 TRP A   3      26.898 -20.245   5.629  0.00  0.00    +0.013 A 
ATOM     35  CE3 TRP A   3      26.922 -18.919   5.983  0.00  0.00    +0.001 A 
ATOM     36  CZ3 TRP A   3      25.736 -18.192   5.892  0.00  0.00    +0.000 A 
ATOM     37  CH2 TRP A   3      24.558 -18.767   5.467  0.00  0.00    +0.001 A 
ATOM     38  CZ2 TRP A   3      24.500 -20.099   5.151  0.00  0.00    +0.017 A 
ATOM     39  CE2 TRP A   3      25.667 -20.817   5.218  0.00  0.00    +0.056 A 
ATOM     40  NE1 TRP A   3      25.905 -22.090   4.952  0.00  0.00    -0.352 N 
ATOM     41  HE1 TRP A   3      25.194 -22.758   4.593  0.00  0.00    +0.166 HD
ATOM     42  CD1 TRP A   3      27.181 -22.407   5.205  0.00  0.00    +0.068 A 
ENDBRANCH  32  33
ENDBRANCH   1  32
TORSDOF 16
REMARK  Name = ../refined-set-2016/4ai5/4ai5_pocket.pdb
REMARK  116 active torsions:
REMARK  status: ('A' for Active; 'I' for Inactive)
REMARK    1  A    between atoms: _1  and  _3
REMARK    2  A    between atoms: _3  and  _4
REMARK    3  A    between atoms: _3  and  _6
REMARK    4  A    between atoms: _8  and  _10
REMARK    5  A    between atoms: _10  and  _11
REMARK    6  A    between atoms: _14  and  _16
REMARK    7  A    between atoms: _16  and  _17
REMARK    8  A    between atoms: _16  and  _19
REMARK    9  A    between atoms: _19  and  _20
REMARK   10  A    between atoms: _26  and  _28
REMARK   11  A    between atoms: _28  and  _29
REMARK   12  A    between atoms: _28  and  _31
REMARK   13  A    between atoms: _31  and  _32
REMARK   14  A    between atoms: _37  and  _38
REMARK   15  A    between atoms: _40  and  _42
REMARK   16  A    between atoms: _42  and  _43
REMARK   17  A    between atoms: _42  and  _45
REMARK   18  A    between atoms: _45  and  _46
REMARK   19  A    between atoms: _52  and  _54
REMARK   20  A    between atoms: _54  and  _55
REMARK   21  A    between atoms: _54  and  _57
REMARK   22  A    between atoms: _57  and  _58
REMARK   23  A    between atoms: _63  and  _65
REMARK   24  A    between atoms: _65  and  _66
REMARK   25  A    between atoms: _65  and  _68
REMARK   26  A    between atoms: _71  and  _73
REMARK   27  A    between atoms: _73  and  _74
REMARK   28  A    between atoms: _73  and  _76
REMARK   29  A    between atoms: _76  and  _77
REMARK   30  A    between atoms: _87  and  _89
REMARK   31  A    between atoms: _89  and  _90
REMARK   32  A    between atoms: _92  and  _94
REMARK   33  A    between atoms: _94  and  _95
REMARK   34  A    between atoms: _94  and  _97
REMARK   35  A    between atoms: _97  and  _98
REMARK   36  A    between atoms: _101  and  _103
REMARK   37  A    between atoms: _103  and  _104
REMARK   38  A    between atoms: _103  and  _106
REMARK   39  A    between atoms: _106  and  _107
REMARK   40  A    between atoms: _110  and  _112
REMARK   41  A    between atoms: _112  and  _113
REMARK   42  A    between atoms: _112  and  _115
REMARK   43  A    between atoms: _115  and  _116
REMARK   44  A    between atoms: _116  and  _117
REMARK   45  A    between atoms: _120  and  _122
REMARK   46  A    between atoms: _122  and  _123
REMARK   47  A    between atoms: _122  and  _125
REMARK   48  A    between atoms: _125  and  _126
REMARK   49  A    between atoms: _128  and  _130
REMARK   50  A    between atoms: _130  and  _131
REMARK   51  A    between atoms: _130  and  _133
REMARK   52  A    between atoms: _133  and  _134
REMARK   53  A    between atoms: _139  and  _141
REMARK   54  A    between atoms: _141  and  _142
REMARK   55  A    between atoms: _145  and  _147
REMARK   56  A    between atoms: _147  and  _148
REMARK   57  A    between atoms: _147  and  _150
REMARK   58  A    between atoms: _150  and  _151
REMARK   59  A    between atoms: _154  and  _156
REMARK   60  A    between atoms: _156  and  _157
REMARK   61  A    between atoms: _156  and  _159
REMARK   62  A    between atoms: _159  and  _160
REMARK   63  A    between atoms: _162  and  _164
REMARK   64  A    between atoms: _164  and  _165
REMARK   65  A    between atoms: _164  and  _167
REMARK   66  A    between atoms: _167  and  _168
REMARK   67  A    between atoms: _178  and  _180
REMARK   68  A    between atoms: _180  and  _181
REMARK   69  A    between atoms: _180  and  _183
REMARK   70  A    between atoms: _183  and  _184
REMARK   71  A    between atoms: _187  and  _189
REMARK   72  A    between atoms: _189  and  _190
REMARK   73  A    between atoms: _189  and  _192
REMARK   74  A    between atoms: _192  and  _193
REMARK   75  A    between atoms: _196  and  _198
REMARK   76  A    between atoms: _198  and  _199
REMARK   77  A    between atoms: _198  and  _201
REMARK   78  A    between atoms: _201  and  _202
REMARK   79  A    between atoms: _205  and  _207
REMARK   80  A    between atoms: _207  and  _208
REMARK   81  A    between atoms: _207  and  _210
REMARK   82  A    between atoms: _210  and  _211
REMARK   83  A    between atoms: _211  and  _212
REMARK   84  A    between atoms: _212  and  _213
REMARK   85  A    between atoms: _222  and  _224
REMARK   86  A    between atoms: _224  and  _225
REMARK   87  A    between atoms: _224  and  _227
REMARK   88  A    between atoms: _230  and  _232
REMARK   89  A    between atoms: _232  and  _233
REMARK   90  A    between atoms: _232  and  _235
REMARK   91  A    between atoms: _235  and  _236
REMARK   92  A    between atoms: _239  and  _241
REMARK   93  A    between atoms: _241  and  _242
REMARK   94  A    between atoms: _241  and  _244
REMARK   95  A    between atoms: _244  and  _245
REMARK   96  A    between atoms: _251  and  _253
REMARK   97  A    between atoms: _253  and  _254
REMARK   98  A    between atoms: _253  and  _256
REMARK   99  A    between atoms: _256  and  _257
REMARK  100  A    between atoms: _259  and  _261
REMARK  101  A    between atoms: _261  and  _262
REMARK  102  A    between atoms: _261  and  _264
REMARK  103  A    between atoms: _264  and  _265
REMARK  104  A    between atoms: _271  and  _273
REMARK  105  A    between atoms: _273  and  _274
REMARK  106  A    between atoms: _273  and  _276
REMARK  107  A    between atoms: _276  and  _277
REMARK  108  A    between atoms: _280  and  _282
REMARK  109  A    between atoms: _282  and  _283
REMARK  110  A    between atoms: _282  and  _285
REMARK  111  A    between atoms: _285  and  _286
REMARK  112  A    between atoms: _286  and  _287
REMARK  113  A    between atoms: _290  and  _292
REMARK  114  A    between atoms: _292  and  _293
REMARK  115  A    between atoms: _296  and  _298
REMARK  116  A    between atoms: _298  and  _299
REMARK                            x       y       z     vdW  Elec       q    Type
REMARK                         _______ _______ _______ _____ _____    ______ ____
ROOT
ATOM      1  C   ILE A   1      24.812 -20.243  11.015  0.00  0.00    +0.238 C 
ATOM      2  O   ILE A   1      23.736 -19.928  11.542  0.00  0.00    -0.274 OA
ATOM      3  N   LEU A   2      24.946 -21.348  10.302  0.00  0.00    -0.298 N 
ATOM      4  H   LEU A   2      25.869 -21.584   9.884  0.00  0.00    +0.150 HD
ENDROOT
BRANCH   1   5
ATOM      5  CA  ILE A   1      26.054 -19.351  11.155  0.00  0.00    +0.145 C 
BRANCH   5   6
ATOM      6  N   ILE A   1      27.277 -20.157  11.393  0.00  0.00    -0.238 NA
ATOM      7  H   ILE A   1      28.042 -20.154  10.688  0.00  0.00    +0.142 HD
ENDBRANCH   5   6
BRANCH   5   8
ATOM      8  CB  ILE A   1      26.210 -18.440   9.911  0.00  0.00    +0.025 C 
ATOM      9  CG2 ILE A   1      24.922 -17.631   9.646  0.00  0.00    +0.002 C 
BRANCH   8  10
ATOM     10  CG1 ILE A   1      27.383 -17.483  10.094  0.00  0.00    +0.002 C 
ATOM     11  CD1 ILE A   1      27.325 -16.611  11.361  0.00  0.00    +0.000 C 
ENDBRANCH   8  10
ENDBRANCH   5   8
ENDBRANCH   1   5
BRANCH   3  12
ATOM     12  CA  LEU A   2      23.807 -22.239  10.097  0.00  0.00    +0.137 C 
BRANCH  12  13
ATOM     13  C   LEU A   2      23.273 -22.698  11.416  0.00  0.00    +0.227 C 
ATOM     14  O   LEU A   2      22.071 -22.755  11.612  0.00  0.00    -0.286 OA
ENDBRANCH  12  13
BRANCH  12  15
ATOM     15  CB  LEU A   2      24.178 -23.448   9.244  0.00  0.00    +0.028 C 
BRANCH  15  16
ATOM     16  CG  LEU A   2      24.045 -23.300   7.733  0.00  0.00    +0.002 C 
ATOM     17  CD2 LEU A   2      22.706 -22.751   7.212  0.00  0.00    +0.000 C 
ATOM     18  CD1 LEU A   2      24.236 -24.742   7.192  0.00  0.00    +0.000 C 
ENDBRANCH  15  16
ENDBRANCH  12  15
ENDBRANCH   3  12
TORSDOF 8
REMARK  Name = ../refined-set-2016/4ai5/4ai5_pocket.pdb
REMARK  116 active torsions:
REMARK  status: ('A' for Active; 'I' for Inactive)
REMARK    1  A    between atoms: _1  and  _3
REMARK    2  A    between atoms: _3  and  _4
REMARK    3  A    between atoms: _3  and  _6
REMARK    4  A    between atoms: _8  and  _10
REMARK    5  A    between atoms: _10  and  _11
REMARK    6  A    between atoms: _14  and  _16
REMARK    7  A    between atoms: _16  and  _17
REMARK    8  A    between atoms: _16  and  _19
REMARK    9  A    between atoms: _19  and  _20
REMARK   10  A    between atoms: _26  and  _28
REMARK   11  A    between atoms: _28  and  _29
REMARK   12  A    between atoms: _28  and  _31
REMARK   13  A    between atoms: _31  and  _32
REMARK   14  A    between atoms: _37  and  _38
REMARK   15  A    between atoms: _40  and  _42
REMARK   16  A    between atoms: _42  and  _43
REMARK   17  A    between atoms: _42  and  _45
REMARK   18  A    between atoms: _45  and  _46
REMARK   19  A    between atoms: _52  and  _54
REMARK   20  A    between atoms: _54  and  _55
REMARK   21  A    between atoms: _54  and  _57
REMARK   22  A    between atoms: _57  and  _58
REMARK   23  A    between atoms: _63  and  _65
REMARK   24  A    between atoms: _65  and  _66
REMARK   25  A    between atoms: _65  and  _68
REMARK   26  A    between atoms: _71  and  _73
REMARK   27  A    between atoms: _73  and  _74
REMARK   28  A    between atoms: _73  and  _76
REMARK   29  A    between atoms: _76  and  _77
REMARK   30  A    between atoms: _87  and  _89
REMARK   31  A    between atoms: _89  and  _90
REMARK   32  A    between atoms: _92  and  _94
REMARK   33  A    between atoms: _94  and  _95
REMARK   34  A    between atoms: _94  and  _97
REMARK   35  A    between atoms: _97  and  _98
REMARK   36  A    between atoms: _101  and  _103
REMARK   37  A    between atoms: _103  and  _104
REMARK   38  A    between atoms: _103  and  _106
REMARK   39  A    between atoms: _106  and  _107
REMARK   40  A    between atoms: _110  and  _112
REMARK   41  A    between atoms: _112  and  _113
REMARK   42  A    between atoms: _112  and  _115
REMARK   43  A    between atoms: _115  and  _116
REMARK   44  A    between atoms: _116  and  _117
REMARK   45  A    between atoms: _120  and  _122
REMARK   46  A    between atoms: _122  and  _123
REMARK   47  A    between atoms: _122  and  _125
REMARK   48  A    between atoms: _125  and  _126
REMARK   49  A    between atoms: _128  and  _130
REMARK   50  A    between atoms: _130  and  _131
REMARK   51  A    between atoms: _130  and  _133
REMARK   52  A    between atoms: _133  and  _134
REMARK   53  A    between atoms: _139  and  _141
REMARK   54  A    between atoms: _141  and  _142
REMARK   55  A    between atoms: _145  and  _147
REMARK   56  A    between atoms: _147  and  _148
REMARK   57  A    between atoms: _147  and  _150
REMARK   58  A    between atoms: _150  and  _151
REMARK   59  A    between atoms: _154  and  _156
REMARK   60  A    between atoms: _156  and  _157
REMARK   61  A    between atoms: _156  and  _159
REMARK   62  A    between atoms: _159  and  _160
REMARK   63  A    between atoms: _162  and  _164
REMARK   64  A    between atoms: _164  and  _165
REMARK   65  A    between atoms: _164  and  _167
REMARK   66  A    between atoms: _167  and  _168
REMARK   67  A    between atoms: _178  and  _180
REMARK   68  A    between atoms: _180  and  _181
REMARK   69  A    between atoms: _180  and  _183
REMARK   70  A    between atoms: _183  and  _184
REMARK   71  A    between atoms: _187  and  _189
REMARK   72  A    between atoms: _189  and  _190
REMARK   73  A    between atoms: _189  and  _192
REMARK   74  A    between atoms: _192  and  _193
REMARK   75  A    between atoms: _196  and  _198
REMARK   76  A    between atoms: _198  and  _199
REMARK   77  A    between atoms: _198  and  _201
REMARK   78  A    between atoms: _201  and  _202
REMARK   79  A    between atoms: _205  and  _207
REMARK   80  A    between atoms: _207  and  _208
REMARK   81  A    between atoms: _207  and  _210
REMARK   82  A    between atoms: _210  and  _211
REMARK   83  A    between atoms: _211  and  _212
REMARK   84  A    between atoms: _212  and  _213
REMARK   85  A    between atoms: _222  and  _224
REMARK   86  A    between atoms: _224  and  _225
REMARK   87  A    between atoms: _224  and  _227
REMARK   88  A    between atoms: _230  and  _232
REMARK   89  A    between atoms: _232  and  _233
REMARK   90  A    between atoms: _232  and  _235
REMARK   91  A    between atoms: _235  and  _236
REMARK   92  A    between atoms: _239  and  _241
REMARK   93  A    between atoms: _241  and  _242
REMARK   94  A    between atoms: _241  and  _244
REMARK   95  A    between atoms: _244  and  _245
REMARK   96  A    between atoms: _251  and  _253
REMARK   97  A    between atoms: _253  and  _254
REMARK   98  A    between atoms: _253  and  _256
REMARK   99  A    between atoms: _256  and  _257
REMARK  100  A    between atoms: _259  and  _261
REMARK  101  A    between atoms: _261  and  _262
REMARK  102  A    between atoms: _261  and  _264
REMARK  103  A    between atoms: _264  and  _265
REMARK  104  A    between atoms: _271  and  _273
REMARK  105  A    between atoms: _273  and  _274
REMARK  106  A    between atoms: _273  and  _276
REMARK  107  A    between atoms: _276  and  _277
REMARK  108  A    between atoms: _280  and  _282
REMARK  109  A    between atoms: _282  and  _283
REMARK  110  A    between atoms: _282  and  _285
REMARK  111  A    between atoms: _285  and  _286
REMARK  112  A    between atoms: _286  and  _287
REMARK  113  A    between atoms: _290  and  _292
REMARK  114  A    between atoms: _292  and  _293
REMARK  115  A    between atoms: _296  and  _298
REMARK  116  A    between atoms: _298  and  _299
REMARK                            x       y       z     vdW  Elec       q    Type
REMARK                         _______ _______ _______ _____ _____    ______ ____
ROOT
ATOM      1  NE  ARG A   1      31.568 -25.916  -5.605  0.00  0.00    -0.265 N 
ATOM      2  CZ  ARG A   1      31.233 -26.815  -4.696  0.00  0.00    +0.342 C 
ATOM      3  NH2 ARG A   1      32.026 -27.023  -3.663  0.00  0.00    -0.292 N 
ATOM      4 HH21 ARG A   1      31.769 -27.729  -2.944  0.00  0.00    +0.255 HD
ATOM      5 HH22 ARG A   1      32.909 -26.481  -3.568  0.00  0.00    +0.255 HD
ATOM      6  NH1 ARG A   1      30.103 -27.524  -4.846  0.00  0.00    -0.292 N 
ATOM      7 HH11 ARG A   1      29.835 -28.233  -4.133  0.00  0.00    +0.255 HD
ATOM      8 HH12 ARG A   1      29.495 -27.365  -5.675  0.00  0.00    +0.255 HD
ATOM      9  HE  ARG A   1      30.932 -25.782  -6.417  0.00  0.00    +0.259 HD
ENDROOT
BRANCH   1  10
ATOM     10  CD  ARG A   1      32.748 -25.119  -5.541  0.00  0.00    +0.174 C 
BRANCH  10  11
ATOM     11  CG  ARG A   1      33.067 -24.497  -6.886  0.00  0.00    +0.045 C 
BRANCH  11  12
ATOM     12  CB  ARG A   1      34.189 -23.499  -6.748  0.00  0.00    +0.029 C 
BRANCH  12  13
ATOM     13  CA  ARG A   1      34.724 -23.085  -8.099  0.00  0.00    +0.133 C 
BRANCH  13  14
ATOM     14  N   ARG A   1      35.549 -24.117  -8.640  0.00  0.00    -0.239 NA
ATOM     15  H   ARG A   1      35.855 -24.914  -8.046  0.00  0.00    +0.142 HD
ENDBRANCH  13  14
BRANCH  13  16
ATOM     16  C   ARG A   1      35.425 -21.733  -7.959  0.00  0.00    +0.224 C 
ATOM     17  O   ARG A   1      36.516 -21.670  -7.395  0.00  0.00    -0.287 OA
ENDBRANCH  13  16
ENDBRANCH  12  13
ENDBRANCH  11  12
ENDBRANCH  10  11
ENDBRANCH   1  10
TORSDOF 6
REMARK  Name = ../refined-set-2016/4ai5/4ai5_pocket.pdb
REMARK  116 active torsions:
REMARK  status: ('A' for Active; 'I' for Inactive)
REMARK    1  A    between atoms: _1  and  _3
REMARK    2  A    between atoms: _3  and  _4
REMARK    3  A    between atoms: _3  and  _6
REMARK    4  A    between atoms: _8  and  _10
REMARK    5  A    between atoms: _10  and  _11
REMARK    6  A    between atoms: _14  and  _16
REMARK    7  A    between atoms: _16  and  _17
REMARK    8  A    between atoms: _16  and  _19
REMARK    9  A    between atoms: _19  and  _20
REMARK   10  A    between atoms: _26  and  _28
REMARK   11  A    between atoms: _28  and  _29
REMARK   12  A    between atoms: _28  and  _31
REMARK   13  A    between atoms: _31  and  _32
REMARK   14  A    between atoms: _37  and  _38
REMARK   15  A    between atoms: _40  and  _42
REMARK   16  A    between atoms: _42  and  _43
REMARK   17  A    between atoms: _42  and  _45
REMARK   18  A    between atoms: _45  and  _46
REMARK   19  A    between atoms: _52  and  _54
REMARK   20  A    between atoms: _54  and  _55
REMARK   21  A    between atoms: _54  and  _57
REMARK   22  A    between atoms: _57  and  _58
REMARK   23  A    between atoms: _63  and  _65
REMARK   24  A    between atoms: _65  and  _66
REMARK   25  A    between atoms: _65  and  _68
REMARK   26  A    between atoms: _71  and  _73
REMARK   27  A    between atoms: _73  and  _74
REMARK   28  A    between atoms: _73  and  _76
REMARK   29  A    between atoms: _76  and  _77
REMARK   30  A    between atoms: _87  and  _89
REMARK   31  A    between atoms: _89  and  _90
REMARK   32  A    between atoms: _92  and  _94
REMARK   33  A    between atoms: _94  and  _95
REMARK   34  A    between atoms: _94  and  _97
REMARK   35  A    between atoms: _97  and  _98
REMARK   36  A    between atoms: _101  and  _103
REMARK   37  A    between atoms: _103  and  _104
REMARK   38  A    between atoms: _103  and  _106
REMARK   39  A    between atoms: _106  and  _107
REMARK   40  A    between atoms: _110  and  _112
REMARK   41  A    between atoms: _112  and  _113
REMARK   42  A    between atoms: _112  and  _115
REMARK   43  A    between atoms: _115  and  _116
REMARK   44  A    between atoms: _116  and  _117
REMARK   45  A    between atoms: _120  and  _122
REMARK   46  A    between atoms: _122  and  _123
REMARK   47  A    between atoms: _122  and  _125
REMARK   48  A    between atoms: _125  and  _126
REMARK   49  A    between atoms: _128  and  _130
REMARK   50  A    between atoms: _130  and  _131
REMARK   51  A    between atoms: _130  and  _133
REMARK   52  A    between atoms: _133  and  _134
REMARK   53  A    between atoms: _139  and  _141
REMARK   54  A    between atoms: _141  and  _142
REMARK   55  A    between atoms: _145  and  _147
REMARK   56  A    between atoms: _147  and  _148
REMARK   57  A    between atoms: _147  and  _150
REMARK   58  A    between atoms: _150  and  _151
REMARK   59  A    between atoms: _154  and  _156
REMARK   60  A    between atoms: _156  and  _157
REMARK   61  A    between atoms: _156  and  _159
REMARK   62  A    between atoms: _159  and  _160
REMARK   63  A    between atoms: _162  and  _164
REMARK   64  A    between atoms: _164  and  _165
REMARK   65  A    between atoms: _164  and  _167
REMARK   66  A    between atoms: _167  and  _168
REMARK   67  A    between atoms: _178  and  _180
REMARK   68  A    between atoms: _180  and  _181
REMARK   69  A    between atoms: _180  and  _183
REMARK   70  A    between atoms: _183  and  _184
REMARK   71  A    between atoms: _187  and  _189
REMARK   72  A    between atoms: _189  and  _190
REMARK   73  A    between atoms: _189  and  _192
REMARK   74  A    between atoms: _192  and  _193
REMARK   75  A    between atoms: _196  and  _198
REMARK   76  A    between atoms: _198  and  _199
REMARK   77  A    between atoms: _198  and  _201
REMARK   78  A    between atoms: _201  and  _202
REMARK   79  A    between atoms: _205  and  _207
REMARK   80  A    between atoms: _207  and  _208
REMARK   81  A    between atoms: _207  and  _210
REMARK   82  A    between atoms: _210  and  _211
REMARK   83  A    between atoms: _211  and  _212
REMARK   84  A    between atoms: _212  and  _213
REMARK   85  A    between atoms: _222  and  _224
REMARK   86  A    between atoms: _224  and  _225
REMARK   87  A    between atoms: _224  and  _227
REMARK   88  A    between atoms: _230  and  _232
REMARK   89  A    between atoms: _232  and  _233
REMARK   90  A    between atoms: _232  and  _235
REMARK   91  A    between atoms: _235  and  _236
REMARK   92  A    between atoms: _239  and  _241
REMARK   93  A    between atoms: _241  and  _242
REMARK   94  A    between atoms: _241  and  _244
REMARK   95  A    between atoms: _244  and  _245
REMARK   96  A    between atoms: _251  and  _253
REMARK   97  A    between atoms: _253  and  _254
REMARK   98  A    between atoms: _253  and  _256
REMARK   99  A    between atoms: _256  and  _257
REMARK  100  A    between atoms: _259  and  _261
REMARK  101  A    between atoms: _261  and  _262
REMARK  102  A    between atoms: _261  and  _264
REMARK  103  A    between atoms: _264  and  _265
REMARK  104  A    between atoms: _271  and  _273
REMARK  105  A    between atoms: _273  and  _274
REMARK  106  A    between atoms: _273  and  _276
REMARK  107  A    between atoms: _276  and  _277
REMARK  108  A    between atoms: _280  and  _282
REMARK  109  A    between atoms: _282  and  _283
REMARK  110  A    between atoms: _282  and  _285
REMARK  111  A    between atoms: _285  and  _286
REMARK  112  A    between atoms: _286  and  _287
REMARK  113  A    between atoms: _290  and  _292
REMARK  114  A    between atoms: _292  and  _293
REMARK  115  A    between atoms: _296  and  _298
REMARK  116  A    between atoms: _298  and  _299
REMARK                            x       y       z     vdW  Elec       q    Type
REMARK                         _______ _______ _______ _____ _____    ______ ____
ROOT
ATOM      1  C   VAL A   1      30.948 -12.804  -1.704  0.00  0.00    +0.238 C 
ATOM      2  N   THR A   2      30.447 -12.040  -0.729  0.00  0.00    -0.296 N 
ATOM      3  H   THR A   2      30.891 -11.117  -0.546  0.00  0.00    +0.150 HD
ATOM      4  O   VAL A   1      30.465 -13.896  -2.004  0.00  0.00    -0.274 OA
ENDROOT
BRANCH   1   5
ATOM      5  CA  VAL A   1      32.137 -12.249  -2.465  0.00  0.00    +0.145 C 
BRANCH   5   6
ATOM      6  CB  VAL A   1      33.476 -12.457  -1.691  0.00  0.00    +0.025 C 
ATOM      7  CG2 VAL A   1      33.627 -13.930  -1.121  0.00  0.00    +0.002 C 
ATOM      8  CG1 VAL A   1      34.698 -12.049  -2.543  0.00  0.00    +0.002 C 
ENDBRANCH   5   6
BRANCH   5   9
ATOM      9  N   VAL A   1      31.914 -10.839  -2.853  0.00  0.00    -0.238 NA
ATOM     10  H   VAL A   1      32.561 -10.115  -2.480  0.00  0.00    +0.142 HD
ENDBRANCH   5   9
ENDBRANCH   1   5
BRANCH   2  11
ATOM     11  CA  THR A   2      29.306 -12.438   0.092  0.00  0.00    +0.164 C 
BRANCH  11  12
ATOM     12  CB  THR A   2      29.089 -11.409   1.207  0.00  0.00    +0.136 C 
ATOM     13  CG2 THR A   2      27.991 -11.860   2.153  0.00  0.00    +0.034 C 
BRANCH  12  14
ATOM     14  OG1 THR A   2      30.309 -11.307   1.969  0.00  0.00    -0.382 OA
ATOM     15  HG1 THR A   2      30.528 -12.190   2.358  0.00  0.00    +0.210 HD
ENDBRANCH  12  14
ENDBRANCH  11  12
BRANCH  11  16
ATOM     16  C   THR A   2      28.023 -12.568  -0.710  0.00  0.00    +0.229 C 
ATOM     17  O   THR A   2      27.289 -13.562  -0.548  0.00  0.00    -0.286 OA
ENDBRANCH  11  16
ENDBRANCH   2  11
TORSDOF 7
REMARK  Name = ../refined-set-2016/4ai5/4ai5_pocket.pdb
REMARK  116 active torsions:
REMARK  status: ('A' for Active; 'I' for Inactive)
REMARK    1  A    between atoms: _1  and  _3
REMARK    2  A    between atoms: _3  and  _4
REMARK    3  A    between atoms: _3  and  _6
REMARK    4  A    between atoms: _8  and  _10
REMARK    5  A    between atoms: _10  and  _11
REMARK    6  A    between atoms: _14  and  _16
REMARK    7  A    between atoms: _16  and  _17
REMARK    8  A    between atoms: _16  and  _19
REMARK    9  A    between atoms: _19  and  _20
REMARK   10  A    between atoms: _26  and  _28
REMARK   11  A    between atoms: _28  and  _29
REMARK   12  A    between atoms: _28  and  _31
REMARK   13  A    between atoms: _31  and  _32
REMARK   14  A    between atoms: _37  and  _38
REMARK   15  A    between atoms: _40  and  _42
REMARK   16  A    between atoms: _42  and  _43
REMARK   17  A    between atoms: _42  and  _45
REMARK   18  A    between atoms: _45  and  _46
REMARK   19  A    between atoms: _52  and  _54
REMARK   20  A    between atoms: _54  and  _55
REMARK   21  A    between atoms: _54  and  _57
REMARK   22  A    between atoms: _57  and  _58
REMARK   23  A    between atoms: _63  and  _65
REMARK   24  A    between atoms: _65  and  _66
REMARK   25  A    between atoms: _65  and  _68
REMARK   26  A    between atoms: _71  and  _73
REMARK   27  A    between atoms: _73  and  _74
REMARK   28  A    between atoms: _73  and  _76
REMARK   29  A    between atoms: _76  and  _77
REMARK   30  A    between atoms: _87  and  _89
REMARK   31  A    between atoms: _89  and  _90
REMARK   32  A    between atoms: _92  and  _94
REMARK   33  A    between atoms: _94  and  _95
REMARK   34  A    between atoms: _94  and  _97
REMARK   35  A    between atoms: _97  and  _98
REMARK   36  A    between atoms: _101  and  _103
REMARK   37  A    between atoms: _103  and  _104
REMARK   38  A    between atoms: _103  and  _106
REMARK   39  A    between atoms: _106  and  _107
REMARK   40  A    between atoms: _110  and  _112
REMARK   41  A    between atoms: _112  and  _113
REMARK   42  A    between atoms: _112  and  _115
REMARK   43  A    between atoms: _115  and  _116
REMARK   44  A    between atoms: _116  and  _117
REMARK   45  A    between atoms: _120  and  _122
REMARK   46  A    between atoms: _122  and  _123
REMARK   47  A    between atoms: _122  and  _125
REMARK   48  A    between atoms: _125  and  _126
REMARK   49  A    between atoms: _128  and  _130
REMARK   50  A    between atoms: _130  and  _131
REMARK   51  A    between atoms: _130  and  _133
REMARK   52  A    between atoms: _133  and  _134
REMARK   53  A    between atoms: _139  and  _141
REMARK   54  A    between atoms: _141  and  _142
REMARK   55  A    between atoms: _145  and  _147
REMARK   56  A    between atoms: _147  and  _148
REMARK   57  A    between atoms: _147  and  _150
REMARK   58  A    between atoms: _150  and  _151
REMARK   59  A    between atoms: _154  and  _156
REMARK   60  A    between atoms: _156  and  _157
REMARK   61  A    between atoms: _156  and  _159
REMARK   62  A    between atoms: _159  and  _160
REMARK   63  A    between atoms: _162  and  _164
REMARK   64  A    between atoms: _164  and  _165
REMARK   65  A    between atoms: _164  and  _167
REMARK   66  A    between atoms: _167  and  _168
REMARK   67  A    between atoms: _178  and  _180
REMARK   68  A    between atoms: _180  and  _181
REMARK   69  A    between atoms: _180  and  _183
REMARK   70  A    between atoms: _183  and  _184
REMARK   71  A    between atoms: _187  and  _189
REMARK   72  A    between atoms: _189  and  _190
REMARK   73  A    between atoms: _189  and  _192
REMARK   74  A    between atoms: _192  and  _193
REMARK   75  A    between atoms: _196  and  _198
REMARK   76  A    between atoms: _198  and  _199
REMARK   77  A    between atoms: _198  and  _201
REMARK   78  A    between atoms: _201  and  _202
REMARK   79  A    between atoms: _205  and  _207
REMARK   80  A    between atoms: _207  and  _208
REMARK   81  A    between atoms: _207  and  _210
REMARK   82  A    between atoms: _210  and  _211
REMARK   83  A    between atoms: _211  and  _212
REMARK   84  A    between atoms: _212  and  _213
REMARK   85  A    between atoms: _222  and  _224
REMARK   86  A    between atoms: _224  and  _225
REMARK   87  A    between atoms: _224  and  _227
REMARK   88  A    between atoms: _230  and  _232
REMARK   89  A    between atoms: _232  and  _233
REMARK   90  A    between atoms: _232  and  _235
REMARK   91  A    between atoms: _235  and  _236
REMARK   92  A    between atoms: _239  and  _241
REMARK   93  A    between atoms: _241  and  _242
REMARK   94  A    between atoms: _241  and  _244
REMARK   95  A    between atoms: _244  and  _245
REMARK   96  A    between atoms: _251  and  _253
REMARK   97  A    between atoms: _253  and  _254
REMARK   98  A    between atoms: _253  and  _256
REMARK   99  A    between atoms: _256  and  _257
REMARK  100  A    between atoms: _259  and  _261
REMARK  101  A    between atoms: _261  and  _262
REMARK  102  A    between atoms: _261  and  _264
REMARK  103  A    between atoms: _264  and  _265
REMARK  104  A    between atoms: _271  and  _273
REMARK  105  A    between atoms: _273  and  _274
REMARK  106  A    between atoms: _273  and  _276
REMARK  107  A    between atoms: _276  and  _277
REMARK  108  A    between atoms: _280  and  _282
REMARK  109  A    between atoms: _282  and  _283
REMARK  110  A    between atoms: _282  and  _285
REMARK  111  A    between atoms: _285  and  _286
REMARK  112  A    between atoms: _286  and  _287
REMARK  113  A    between atoms: _290  and  _292
REMARK  114  A    between atoms: _292  and  _293
REMARK  115  A    between atoms: _296  and  _298
REMARK  116  A    between atoms: _298  and  _299
REMARK                            x       y       z     vdW  Elec       q    Type
REMARK                         _______ _______ _______ _____ _____    ______ ____
ROOT
ATOM      1  C   PHE A   3      23.590 -16.389  -2.820  0.00  0.00    +0.241 C 
ATOM      2  O   PHE A   3      22.619 -17.152  -2.833  0.00  0.00    -0.273 OA
ATOM      3  N   LEU A   4      24.132 -15.941  -3.942  0.00  0.00    -0.297 N 
ATOM      4  H   LEU A   4      24.934 -15.280  -3.912  0.00  0.00    +0.150 HD
ENDROOT
BRANCH   3   5
ATOM      5  CA  LEU A   4      23.580 -16.394  -5.240  0.00  0.00    +0.149 C 
BRANCH   5   6
ATOM      6  C   LEU A   4      23.591 -17.947  -5.374  0.00  0.00    +0.241 C 
ATOM      7  N   GLU A   5      24.702 -18.570  -4.965  0.00  0.00    -0.297 N 
ATOM      8  H   GLU A   5      25.512 -17.991  -4.665  0.00  0.00    +0.150 HD
ATOM      9  O   LEU A   4      22.615 -18.521  -5.806  0.00  0.00    -0.273 OA
BRANCH   7  10
ATOM     10  CA  GLU A   5      24.829 -19.991  -4.920  0.00  0.00    +0.149 C 
BRANCH  10  11
ATOM     11  C   GLU A   5      23.812 -20.621  -3.985  0.00  0.00    +0.241 C 
ATOM     12  N   ALA A   6      23.690 -20.056  -2.788  0.00  0.00    -0.297 N 
ATOM     13  H   ALA A   6      24.224 -19.188  -2.581  0.00  0.00    +0.150 HD
ATOM     14  O   GLU A   5      23.156 -21.600  -4.333  0.00  0.00    -0.273 OA
BRANCH  12  15
ATOM     15  CA  ALA A   6      22.830 -20.619  -1.760  0.00  0.00    +0.149 C 
ATOM     16  CB  ALA A   6      23.056 -19.907  -0.412  0.00  0.00    +0.031 C 
BRANCH  15  17
ATOM     17  C   ALA A   6      21.373 -20.560  -2.150  0.00  0.00    +0.241 C 
ATOM     18  O   ALA A   6      20.617 -21.513  -1.867  0.00  0.00    -0.273 OA
ATOM     19  N   ALA A   7      20.958 -19.466  -2.801  0.00  0.00    -0.298 N 
ATOM     20  H   ALA A   7      21.667 -18.749  -3.056  0.00  0.00    +0.150 HD
BRANCH  19  21
ATOM     21  CA  ALA A   7      19.534 -19.214  -3.183  0.00  0.00    +0.137 C 
ATOM     22  CB  ALA A   7      19.260 -17.707  -3.334  0.00  0.00    +0.030 C 
BRANCH  21  23
ATOM     23  C   ALA A   7      19.197 -19.882  -4.490  0.00  0.00    +0.227 C 
ATOM     24  O   ALA A   7      18.024 -19.851  -4.939  0.00  0.00    -0.286 OA
ENDBRANCH  21  23
ENDBRANCH  19  21
ENDBRANCH  15  17
ENDBRANCH  12  15
ENDBRANCH  10  11
BRANCH  10  25
ATOM     25  CB  GLU A   5      26.216 -20.413  -4.462  0.00  0.00    +0.041 C 
BRANCH  25  26
ATOM     26  CG  GLU A   5      27.362 -20.093  -5.413  0.00  0.00    +0.116 C 
BRANCH  26  27
ATOM     27  CD  GLU A   5      28.710 -20.471  -4.849  0.00  0.00    +0.365 C 
ATOM     28  OE2 GLU A   5      28.967 -20.118  -3.684  0.00  0.00    -0.246 OA
ATOM     29  OE1 GLU A   5      29.527 -21.127  -5.572  0.00  0.00    -0.246 OA
ENDBRANCH  26  27
ENDBRANCH  25  26
ENDBRANCH  10  25
ENDBRANCH   7  10
ENDBRANCH   5   6
BRANCH   5  30
ATOM     30  CB  LEU A   4      24.345 -15.755  -6.407  0.00  0.00    +0.029 C 
BRANCH  30  31
ATOM     31  CG  LEU A   4      24.024 -14.242  -6.645  0.00  0.00    +0.002 C 
ATOM     32  CD2 LEU A   4      22.542 -13.990  -6.914  0.00  0.00    +0.000 C 
ATOM     33  CD1 LEU A   4      24.930 -13.698  -7.767  0.00  0.00    +0.000 C 
ENDBRANCH  30  31
ENDBRANCH   5  30
ENDBRANCH   3   5
BRANCH   1  34
ATOM     34  CA  PHE A   3      24.239 -15.965  -1.517  0.00  0.00    +0.153 C 
BRANCH  34  36
ATOM     35  C   SER A   2      26.386 -17.112  -1.789  0.00  0.00    +0.243 C 
ATOM     36  N   PHE A   3      25.715 -15.987  -1.599  0.00  0.00    -0.297 N 
ATOM     37  H   PHE A   3      26.240 -15.094  -1.505  0.00  0.00    +0.150 HD
ATOM     38  O   SER A   2      25.840 -18.206  -1.806  0.00  0.00    -0.273 OA
BRANCH  35  39
ATOM     39  CA  SER A   2      27.918 -16.980  -1.916  0.00  0.00    +0.178 C 
BRANCH  39  41
ATOM     40  C   PHE A   1      27.860 -15.731  -3.997  0.00  0.00    +0.239 C 
ATOM     41  N   SER A   2      28.279 -15.827  -2.734  0.00  0.00    -0.295 N 
ATOM     42  H   SER A   2      28.869 -15.072  -2.328  0.00  0.00    +0.150 HD
ATOM     43  O   PHE A   1      27.154 -16.591  -4.513  0.00  0.00    -0.274 OA
BRANCH  40  44
ATOM     44  CA  PHE A   1      28.194 -14.439  -4.769  0.00  0.00    +0.149 C 
BRANCH  44  45
ATOM     45  N   PHE A   1      27.985 -13.227  -3.930  0.00  0.00    -0.238 NA
ATOM     46  H   PHE A   1      28.794 -12.617  -3.697  0.00  0.00    +0.142 HD
ENDBRANCH  44  45
BRANCH  44  47
ATOM     47  CB  PHE A   1      29.637 -14.474  -5.275  0.00  0.00    +0.053 C 
BRANCH  47  48
ATOM     48  CG  PHE A   1      29.936 -15.599  -6.210  0.00  0.00    -0.020 A 
ATOM     49  CD2 PHE A   1      30.245 -16.861  -5.716  0.00  0.00    -0.004 A 
ATOM     50  CE2 PHE A   1      30.439 -17.943  -6.569  0.00  0.00    -0.000 A 
ATOM     51  CZ  PHE A   1      30.404 -17.747  -7.946  0.00  0.00    -0.000 A 
ATOM     52  CE1 PHE A   1      30.136 -16.484  -8.447  0.00  0.00    -0.000 A 
ATOM     53  CD1 PHE A   1      29.908 -15.409  -7.584  0.00  0.00    -0.004 A 
ENDBRANCH  47  48
ENDBRANCH  44  47
ENDBRANCH  40  44
ENDBRANCH  39  41
BRANCH  39  54
ATOM     54  CB  SER A   2      28.563 -16.929  -0.547  0.00  0.00    +0.166 C 
BRANCH  54  55
ATOM     55  OG  SER A   2      29.991 -16.922  -0.616  0.00  0.00    -0.380 OA
ATOM     56  H   SER A   2      30.292 -16.128  -1.126  0.00  0.00    +0.211 HD
ENDBRANCH  54  55
ENDBRANCH  39  54
ENDBRANCH  35  39
ENDBRANCH  34  36
BRANCH  34  57
ATOM     57  CB  PHE A   3      23.758 -14.574  -1.122  0.00  0.00    +0.055 C 
BRANCH  57  58
ATOM     58  CG  PHE A   3      22.305 -14.320  -1.485  0.00  0.00    -0.020 A 
ATOM     59  CD2 PHE A   3      21.297 -14.822  -0.676  0.00  0.00    -0.004 A 
ATOM     60  CE2 PHE A   3      19.978 -14.619  -0.994  0.00  0.00    -0.000 A 
ATOM     61  CZ  PHE A   3      19.627 -13.952  -2.152  0.00  0.00    -0.000 A 
ATOM     62  CE1 PHE A   3      20.614 -13.471  -2.979  0.00  0.00    -0.000 A 
ATOM     63  CD1 PHE A   3      21.960 -13.664  -2.645  0.00  0.00    -0.004 A 
ENDBRANCH  57  58
ENDBRANCH  34  57
ENDBRANCH   1  34
TORSDOF 25
REMARK  Name = ../refined-set-2016/4ai5/4ai5_pocket.pdb
REMARK  116 active torsions:
REMARK  status: ('A' for Active; 'I' for Inactive)
REMARK    1  A    between atoms: _1  and  _3
REMARK    2  A    between atoms: _3  and  _4
REMARK    3  A    between atoms: _3  and  _6
REMARK    4  A    between atoms: _8  and  _10
REMARK    5  A    between atoms: _10  and  _11
REMARK    6  A    between atoms: _14  and  _16
REMARK    7  A    between atoms: _16  and  _17
REMARK    8  A    between atoms: _16  and  _19
REMARK    9  A    between atoms: _19  and  _20
REMARK   10  A    between atoms: _26  and  _28
REMARK   11  A    between atoms: _28  and  _29
REMARK   12  A    between atoms: _28  and  _31
REMARK   13  A    between atoms: _31  and  _32
REMARK   14  A    between atoms: _37  and  _38
REMARK   15  A    between atoms: _40  and  _42
REMARK   16  A    between atoms: _42  and  _43
REMARK   17  A    between atoms: _42  and  _45
REMARK   18  A    between atoms: _45  and  _46
REMARK   19  A    between atoms: _52  and  _54
REMARK   20  A    between atoms: _54  and  _55
REMARK   21  A    between atoms: _54  and  _57
REMARK   22  A    between atoms: _57  and  _58
REMARK   23  A    between atoms: _63  and  _65
REMARK   24  A    between atoms: _65  and  _66
REMARK   25  A    between atoms: _65  and  _68
REMARK   26  A    between atoms: _71  and  _73
REMARK   27  A    between atoms: _73  and  _74
REMARK   28  A    between atoms: _73  and  _76
REMARK   29  A    between atoms: _76  and  _77
REMARK   30  A    between atoms: _87  and  _89
REMARK   31  A    between atoms: _89  and  _90
REMARK   32  A    between atoms: _92  and  _94
REMARK   33  A    between atoms: _94  and  _95
REMARK   34  A    between atoms: _94  and  _97
REMARK   35  A    between atoms: _97  and  _98
REMARK   36  A    between atoms: _101  and  _103
REMARK   37  A    between atoms: _103  and  _104
REMARK   38  A    between atoms: _103  and  _106
REMARK   39  A    between atoms: _106  and  _107
REMARK   40  A    between atoms: _110  and  _112
REMARK   41  A    between atoms: _112  and  _113
REMARK   42  A    between atoms: _112  and  _115
REMARK   43  A    between atoms: _115  and  _116
REMARK   44  A    between atoms: _116  and  _117
REMARK   45  A    between atoms: _120  and  _122
REMARK   46  A    between atoms: _122  and  _123
REMARK   47  A    between atoms: _122  and  _125
REMARK   48  A    between atoms: _125  and  _126
REMARK   49  A    between atoms: _128  and  _130
REMARK   50  A    between atoms: _130  and  _131
REMARK   51  A    between atoms: _130  and  _133
REMARK   52  A    between atoms: _133  and  _134
REMARK   53  A    between atoms: _139  and  _141
REMARK   54  A    between atoms: _141  and  _142
REMARK   55  A    between atoms: _145  and  _147
REMARK   56  A    between atoms: _147  and  _148
REMARK   57  A    between atoms: _147  and  _150
REMARK   58  A    between atoms: _150  and  _151
REMARK   59  A    between atoms: _154  and  _156
REMARK   60  A    between atoms: _156  and  _157
REMARK   61  A    between atoms: _156  and  _159
REMARK   62  A    between atoms: _159  and  _160
REMARK   63  A    between atoms: _162  and  _164
REMARK   64  A    between atoms: _164  and  _165
REMARK   65  A    between atoms: _164  and  _167
REMARK   66  A    between atoms: _167  and  _168
REMARK   67  A    between atoms: _178  and  _180
REMARK   68  A    between atoms: _180  and  _181
REMARK   69  A    between atoms: _180  and  _183
REMARK   70  A    between atoms: _183  and  _184
REMARK   71  A    between atoms: _187  and  _189
REMARK   72  A    between atoms: _189  and  _190
REMARK   73  A    between atoms: _189  and  _192
REMARK   74  A    between atoms: _192  and  _193
REMARK   75  A    between atoms: _196  and  _198
REMARK   76  A    between atoms: _198  and  _199
REMARK   77  A    between atoms: _198  and  _201
REMARK   78  A    between atoms: _201  and  _202
REMARK   79  A    between atoms: _205  and  _207
REMARK   80  A    between atoms: _207  and  _208
REMARK   81  A    between atoms: _207  and  _210
REMARK   82  A    between atoms: _210  and  _211
REMARK   83  A    between atoms: _211  and  _212
REMARK   84  A    between atoms: _212  and  _213
REMARK   85  A    between atoms: _222  and  _224
REMARK   86  A    between atoms: _224  and  _225
REMARK   87  A    between atoms: _224  and  _227
REMARK   88  A    between atoms: _230  and  _232
REMARK   89  A    between atoms: _232  and  _233
REMARK   90  A    between atoms: _232  and  _235
REMARK   91  A    between atoms: _235  and  _236
REMARK   92  A    between atoms: _239  and  _241
REMARK   93  A    between atoms: _241  and  _242
REMARK   94  A    between atoms: _241  and  _244
REMARK   95  A    between atoms: _244  and  _245
REMARK   96  A    between atoms: _251  and  _253
REMARK   97  A    between atoms: _253  and  _254
REMARK   98  A    between atoms: _253  and  _256
REMARK   99  A    between atoms: _256  and  _257
REMARK  100  A    between atoms: _259  and  _261
REMARK  101  A    between atoms: _261  and  _262
REMARK  102  A    between atoms: _261  and  _264
REMARK  103  A    between atoms: _264  and  _265
REMARK  104  A    between atoms: _271  and  _273
REMARK  105  A    between atoms: _273  and  _274
REMARK  106  A    between atoms: _273  and  _276
REMARK  107  A    between atoms: _276  and  _277
REMARK  108  A    between atoms: _280  and  _282
REMARK  109  A    between atoms: _282  and  _283
REMARK  110  A    between atoms: _282  and  _285
REMARK  111  A    between atoms: _285  and  _286
REMARK  112  A    between atoms: _286  and  _287
REMARK  113  A    between atoms: _290  and  _292
REMARK  114  A    between atoms: _292  and  _293
REMARK  115  A    between atoms: _296  and  _298
REMARK  116  A    between atoms: _298  and  _299
REMARK                            x       y       z     vdW  Elec       q    Type
REMARK                         _______ _______ _______ _____ _____    ______ ____
ROOT
ATOM      1  O   HOH     1      33.699 -26.609   4.185  0.00  0.00    +0.000 OA
ENDROOT
TORSDOF 0
REMARK  Name = ../refined-set-2016/4ai5/4ai5_pocket.pdb
REMARK  116 active torsions:
REMARK  status: ('A' for Active; 'I' for Inactive)
REMARK    1  A    between atoms: _1  and  _3
REMARK    2  A    between atoms: _3  and  _4
REMARK    3  A    between atoms: _3  and  _6
REMARK    4  A    between atoms: _8  and  _10
REMARK    5  A    between atoms: _10  and  _11
REMARK    6  A    between atoms: _14  and  _16
REMARK    7  A    between atoms: _16  and  _17
REMARK    8  A    between atoms: _16  and  _19
REMARK    9  A    between atoms: _19  and  _20
REMARK   10  A    between atoms: _26  and  _28
REMARK   11  A    between atoms: _28  and  _29
REMARK   12  A    between atoms: _28  and  _31
REMARK   13  A    between atoms: _31  and  _32
REMARK   14  A    between atoms: _37  and  _38
REMARK   15  A    between atoms: _40  and  _42
REMARK   16  A    between atoms: _42  and  _43
REMARK   17  A    between atoms: _42  and  _45
REMARK   18  A    between atoms: _45  and  _46
REMARK   19  A    between atoms: _52  and  _54
REMARK   20  A    between atoms: _54  and  _55
REMARK   21  A    between atoms: _54  and  _57
REMARK   22  A    between atoms: _57  and  _58
REMARK   23  A    between atoms: _63  and  _65
REMARK   24  A    between atoms: _65  and  _66
REMARK   25  A    between atoms: _65  and  _68
REMARK   26  A    between atoms: _71  and  _73
REMARK   27  A    between atoms: _73  and  _74
REMARK   28  A    between atoms: _73  and  _76
REMARK   29  A    between atoms: _76  and  _77
REMARK   30  A    between atoms: _87  and  _89
REMARK   31  A    between atoms: _89  and  _90
REMARK   32  A    between atoms: _92  and  _94
REMARK   33  A    between atoms: _94  and  _95
REMARK   34  A    between atoms: _94  and  _97
REMARK   35  A    between atoms: _97  and  _98
REMARK   36  A    between atoms: _101  and  _103
REMARK   37  A    between atoms: _103  and  _104
REMARK   38  A    between atoms: _103  and  _106
REMARK   39  A    between atoms: _106  and  _107
REMARK   40  A    between atoms: _110  and  _112
REMARK   41  A    between atoms: _112  and  _113
REMARK   42  A    between atoms: _112  and  _115
REMARK   43  A    between atoms: _115  and  _116
REMARK   44  A    between atoms: _116  and  _117
REMARK   45  A    between atoms: _120  and  _122
REMARK   46  A    between atoms: _122  and  _123
REMARK   47  A    between atoms: _122  and  _125
REMARK   48  A    between atoms: _125  and  _126
REMARK   49  A    between atoms: _128  and  _130
REMARK   50  A    between atoms: _130  and  _131
REMARK   51  A    between atoms: _130  and  _133
REMARK   52  A    between atoms: _133  and  _134
REMARK   53  A    between atoms: _139  and  _141
REMARK   54  A    between atoms: _141  and  _142
REMARK   55  A    between atoms: _145  and  _147
REMARK   56  A    between atoms: _147  and  _148
REMARK   57  A    between atoms: _147  and  _150
REMARK   58  A    between atoms: _150  and  _151
REMARK   59  A    between atoms: _154  and  _156
REMARK   60  A    between atoms: _156  and  _157
REMARK   61  A    between atoms: _156  and  _159
REMARK   62  A    between atoms: _159  and  _160
REMARK   63  A    between atoms: _162  and  _164
REMARK   64  A    between atoms: _164  and  _165
REMARK   65  A    between atoms: _164  and  _167
REMARK   66  A    between atoms: _167  and  _168
REMARK   67  A    between atoms: _178  and  _180
REMARK   68  A    between atoms: _180  and  _181
REMARK   69  A    between atoms: _180  and  _183
REMARK   70  A    between atoms: _183  and  _184
REMARK   71  A    between atoms: _187  and  _189
REMARK   72  A    between atoms: _189  and  _190
REMARK   73  A    between atoms: _189  and  _192
REMARK   74  A    between atoms: _192  and  _193
REMARK   75  A    between atoms: _196  and  _198
REMARK   76  A    between atoms: _198  and  _199
REMARK   77  A    between atoms: _198  and  _201
REMARK   78  A    between atoms: _201  and  _202
REMARK   79  A    between atoms: _205  and  _207
REMARK   80  A    between atoms: _207  and  _208
REMARK   81  A    between atoms: _207  and  _210
REMARK   82  A    between atoms: _210  and  _211
REMARK   83  A    between atoms: _211  and  _212
REMARK   84  A    between atoms: _212  and  _213
REMARK   85  A    between atoms: _222  and  _224
REMARK   86  A    between atoms: _224  and  _225
REMARK   87  A    between atoms: _224  and  _227
REMARK   88  A    between atoms: _230  and  _232
REMARK   89  A    between atoms: _232  and  _233
REMARK   90  A    between atoms: _232  and  _235
REMARK   91  A    between atoms: _235  and  _236
REMARK   92  A    between atoms: _239  and  _241
REMARK   93  A    between atoms: _241  and  _242
REMARK   94  A    between atoms: _241  and  _244
REMARK   95  A    between atoms: _244  and  _245
REMARK   96  A    between atoms: _251  and  _253
REMARK   97  A    between atoms: _253  and  _254
REMARK   98  A    between atoms: _253  and  _256
REMARK   99  A    between atoms: _256  and  _257
REMARK  100  A    between atoms: _259  and  _261
REMARK  101  A    between atoms: _261  and  _262
REMARK  102  A    between atoms: _261  and  _264
REMARK  103  A    between atoms: _264  and  _265
REMARK  104  A    between atoms: _271  and  _273
REMARK  105  A    between atoms: _273  and  _274
REMARK  106  A    between atoms: _273  and  _276
REMARK  107  A    between atoms: _276  and  _277
REMARK  108  A    between atoms: _280  and  _282
REMARK  109  A    between atoms: _282  and  _283
REMARK  110  A    between atoms: _282  and  _285
REMARK  111  A    between atoms: _285  and  _286
REMARK  112  A    between atoms: _286  and  _287
REMARK  113  A    between atoms: _290  and  _292
REMARK  114  A    between atoms: _292  and  _293
REMARK  115  A    between atoms: _296  and  _298
REMARK  116  A    between atoms: _298  and  _299
REMARK                            x       y       z     vdW  Elec       q    Type
REMARK                         _______ _______ _______ _____ _____    ______ ____
ROOT
ATOM      1  O   HOH     1      31.983 -24.759   4.580  0.00  0.00    +0.000 OA
ENDROOT
TORSDOF 0
REMARK  Name = ../refined-set-2016/4ai5/4ai5_pocket.pdb
REMARK  116 active torsions:
REMARK  status: ('A' for Active; 'I' for Inactive)
REMARK    1  A    between atoms: _1  and  _3
REMARK    2  A    between atoms: _3  and  _4
REMARK    3  A    between atoms: _3  and  _6
REMARK    4  A    between atoms: _8  and  _10
REMARK    5  A    between atoms: _10  and  _11
REMARK    6  A    between atoms: _14  and  _16
REMARK    7  A    between atoms: _16  and  _17
REMARK    8  A    between atoms: _16  and  _19
REMARK    9  A    between atoms: _19  and  _20
REMARK   10  A    between atoms: _26  and  _28
REMARK   11  A    between atoms: _28  and  _29
REMARK   12  A    between atoms: _28  and  _31
REMARK   13  A    between atoms: _31  and  _32
REMARK   14  A    between atoms: _37  and  _38
REMARK   15  A    between atoms: _40  and  _42
REMARK   16  A    between atoms: _42  and  _43
REMARK   17  A    between atoms: _42  and  _45
REMARK   18  A    between atoms: _45  and  _46
REMARK   19  A    between atoms: _52  and  _54
REMARK   20  A    between atoms: _54  and  _55
REMARK   21  A    between atoms: _54  and  _57
REMARK   22  A    between atoms: _57  and  _58
REMARK   23  A    between atoms: _63  and  _65
REMARK   24  A    between atoms: _65  and  _66
REMARK   25  A    between atoms: _65  and  _68
REMARK   26  A    between atoms: _71  and  _73
REMARK   27  A    between atoms: _73  and  _74
REMARK   28  A    between atoms: _73  and  _76
REMARK   29  A    between atoms: _76  and  _77
REMARK   30  A    between atoms: _87  and  _89
REMARK   31  A    between atoms: _89  and  _90
REMARK   32  A    between atoms: _92  and  _94
REMARK   33  A    between atoms: _94  and  _95
REMARK   34  A    between atoms: _94  and  _97
REMARK   35  A    between atoms: _97  and  _98
REMARK   36  A    between atoms: _101  and  _103
REMARK   37  A    between atoms: _103  and  _104
REMARK   38  A    between atoms: _103  and  _106
REMARK   39  A    between atoms: _106  and  _107
REMARK   40  A    between atoms: _110  and  _112
REMARK   41  A    between atoms: _112  and  _113
REMARK   42  A    between atoms: _112  and  _115
REMARK   43  A    between atoms: _115  and  _116
REMARK   44  A    between atoms: _116  and  _117
REMARK   45  A    between atoms: _120  and  _122
REMARK   46  A    between atoms: _122  and  _123
REMARK   47  A    between atoms: _122  and  _125
REMARK   48  A    between atoms: _125  and  _126
REMARK   49  A    between atoms: _128  and  _130
REMARK   50  A    between atoms: _130  and  _131
REMARK   51  A    between atoms: _130  and  _133
REMARK   52  A    between atoms: _133  and  _134
REMARK   53  A    between atoms: _139  and  _141
REMARK   54  A    between atoms: _141  and  _142
REMARK   55  A    between atoms: _145  and  _147
REMARK   56  A    between atoms: _147  and  _148
REMARK   57  A    between atoms: _147  and  _150
REMARK   58  A    between atoms: _150  and  _151
REMARK   59  A    between atoms: _154  and  _156
REMARK   60  A    between atoms: _156  and  _157
REMARK   61  A    between atoms: _156  and  _159
REMARK   62  A    between atoms: _159  and  _160
REMARK   63  A    between atoms: _162  and  _164
REMARK   64  A    between atoms: _164  and  _165
REMARK   65  A    between atoms: _164  and  _167
REMARK   66  A    between atoms: _167  and  _168
REMARK   67  A    between atoms: _178  and  _180
REMARK   68  A    between atoms: _180  and  _181
REMARK   69  A    between atoms: _180  and  _183
REMARK   70  A    between atoms: _183  and  _184
REMARK   71  A    between atoms: _187  and  _189
REMARK   72  A    between atoms: _189  and  _190
REMARK   73  A    between atoms: _189  and  _192
REMARK   74  A    between atoms: _192  and  _193
REMARK   75  A    between atoms: _196  and  _198
REMARK   76  A    between atoms: _198  and  _199
REMARK   77  A    between atoms: _198  and  _201
REMARK   78  A    between atoms: _201  and  _202
REMARK   79  A    between atoms: _205  and  _207
REMARK   80  A    between atoms: _207  and  _208
REMARK   81  A    between atoms: _207  and  _210
REMARK   82  A    between atoms: _210  and  _211
REMARK   83  A    between atoms: _211  and  _212
REMARK   84  A    between atoms: _212  and  _213
REMARK   85  A    between atoms: _222  and  _224
REMARK   86  A    between atoms: _224  and  _225
REMARK   87  A    between atoms: _224  and  _227
REMARK   88  A    between atoms: _230  and  _232
REMARK   89  A    between atoms: _232  and  _233
REMARK   90  A    between atoms: _232  and  _235
REMARK   91  A    between atoms: _235  and  _236
REMARK   92  A    between atoms: _239  and  _241
REMARK   93  A    between atoms: _241  and  _242
REMARK   94  A    between atoms: _241  and  _244
REMARK   95  A    between atoms: _244  and  _245
REMARK   96  A    between atoms: _251  and  _253
REMARK   97  A    between atoms: _253  and  _254
REMARK   98  A    between atoms: _253  and  _256
REMARK   99  A    between atoms: _256  and  _257
REMARK  100  A    between atoms: _259  and  _261
REMARK  101  A    between atoms: _261  and  _262
REMARK  102  A    between atoms: _261  and  _264
REMARK  103  A    between atoms: _264  and  _265
REMARK  104  A    between atoms: _271  and  _273
REMARK  105  A    between atoms: _273  and  _274
REMARK  106  A    between atoms: _273  and  _276
REMARK  107  A    between atoms: _276  and  _277
REMARK  108  A    between atoms: _280  and  _282
REMARK  109  A    between atoms: _282  and  _283
REMARK  110  A    between atoms: _282  and  _285
REMARK  111  A    between atoms: _285  and  _286
REMARK  112  A    between atoms: _286  and  _287
REMARK  113  A    between atoms: _290  and  _292
REMARK  114  A    between atoms: _292  and  _293
REMARK  115  A    between atoms: _296  and  _298
REMARK  116  A    between atoms: _298  and  _299
REMARK                            x       y       z     vdW  Elec       q    Type
REMARK                         _______ _______ _______ _____ _____    ______ ____
ROOT
ATOM      1  O   HOH     1      27.526 -20.448  -1.285  0.00  0.00    +0.000 OA
ENDROOT
TORSDOF 0
REMARK  Name = ../refined-set-2016/4ai5/4ai5_pocket.pdb
REMARK  116 active torsions:
REMARK  status: ('A' for Active; 'I' for Inactive)
REMARK    1  A    between atoms: _1  and  _3
REMARK    2  A    between atoms: _3  and  _4
REMARK    3  A    between atoms: _3  and  _6
REMARK    4  A    between atoms: _8  and  _10
REMARK    5  A    between atoms: _10  and  _11
REMARK    6  A    between atoms: _14  and  _16
REMARK    7  A    between atoms: _16  and  _17
REMARK    8  A    between atoms: _16  and  _19
REMARK    9  A    between atoms: _19  and  _20
REMARK   10  A    between atoms: _26  and  _28
REMARK   11  A    between atoms: _28  and  _29
REMARK   12  A    between atoms: _28  and  _31
REMARK   13  A    between atoms: _31  and  _32
REMARK   14  A    between atoms: _37  and  _38
REMARK   15  A    between atoms: _40  and  _42
REMARK   16  A    between atoms: _42  and  _43
REMARK   17  A    between atoms: _42  and  _45
REMARK   18  A    between atoms: _45  and  _46
REMARK   19  A    between atoms: _52  and  _54
REMARK   20  A    between atoms: _54  and  _55
REMARK   21  A    between atoms: _54  and  _57
REMARK   22  A    between atoms: _57  and  _58
REMARK   23  A    between atoms: _63  and  _65
REMARK   24  A    between atoms: _65  and  _66
REMARK   25  A    between atoms: _65  and  _68
REMARK   26  A    between atoms: _71  and  _73
REMARK   27  A    between atoms: _73  and  _74
REMARK   28  A    between atoms: _73  and  _76
REMARK   29  A    between atoms: _76  and  _77
REMARK   30  A    between atoms: _87  and  _89
REMARK   31  A    between atoms: _89  and  _90
REMARK   32  A    between atoms: _92  and  _94
REMARK   33  A    between atoms: _94  and  _95
REMARK   34  A    between atoms: _94  and  _97
REMARK   35  A    between atoms: _97  and  _98
REMARK   36  A    between atoms: _101  and  _103
REMARK   37  A    between atoms: _103  and  _104
REMARK   38  A    between atoms: _103  and  _106
REMARK   39  A    between atoms: _106  and  _107
REMARK   40  A    between atoms: _110  and  _112
REMARK   41  A    between atoms: _112  and  _113
REMARK   42  A    between atoms: _112  and  _115
REMARK   43  A    between atoms: _115  and  _116
REMARK   44  A    between atoms: _116  and  _117
REMARK   45  A    between atoms: _120  and  _122
REMARK   46  A    between atoms: _122  and  _123
REMARK   47  A    between atoms: _122  and  _125
REMARK   48  A    between atoms: _125  and  _126
REMARK   49  A    between atoms: _128  and  _130
REMARK   50  A    between atoms: _130  and  _131
REMARK   51  A    between atoms: _130  and  _133
REMARK   52  A    between atoms: _133  and  _134
REMARK   53  A    between atoms: _139  and  _141
REMARK   54  A    between atoms: _141  and  _142
REMARK   55  A    between atoms: _145  and  _147
REMARK   56  A    between atoms: _147  and  _148
REMARK   57  A    between atoms: _147  and  _150
REMARK   58  A    between atoms: _150  and  _151
REMARK   59  A    between atoms: _154  and  _156
REMARK   60  A    between atoms: _156  and  _157
REMARK   61  A    between atoms: _156  and  _159
REMARK   62  A    between atoms: _159  and  _160
REMARK   63  A    between atoms: _162  and  _164
REMARK   64  A    between atoms: _164  and  _165
REMARK   65  A    between atoms: _164  and  _167
REMARK   66  A    between atoms: _167  and  _168
REMARK   67  A    between atoms: _178  and  _180
REMARK   68  A    between atoms: _180  and  _181
REMARK   69  A    between atoms: _180  and  _183
REMARK   70  A    between atoms: _183  and  _184
REMARK   71  A    between atoms: _187  and  _189
REMARK   72  A    between atoms: _189  and  _190
REMARK   73  A    between atoms: _189  and  _192
REMARK   74  A    between atoms: _192  and  _193
REMARK   75  A    between atoms: _196  and  _198
REMARK   76  A    between atoms: _198  and  _199
REMARK   77  A    between atoms: _198  and  _201
REMARK   78  A    between atoms: _201  and  _202
REMARK   79  A    between atoms: _205  and  _207
REMARK   80  A    between atoms: _207  and  _208
REMARK   81  A    between atoms: _207  and  _210
REMARK   82  A    between atoms: _210  and  _211
REMARK   83  A    between atoms: _211  and  _212
REMARK   84  A    between atoms: _212  and  _213
REMARK   85  A    between atoms: _222  and  _224
REMARK   86  A    between atoms: _224  and  _225
REMARK   87  A    between atoms: _224  and  _227
REMARK   88  A    between atoms: _230  and  _232
REMARK   89  A    between atoms: _232  and  _233
REMARK   90  A    between atoms: _232  and  _235
REMARK   91  A    between atoms: _235  and  _236
REMARK   92  A    between atoms: _239  and  _241
REMARK   93  A    between atoms: _241  and  _242
REMARK   94  A    between atoms: _241  and  _244
REMARK   95  A    between atoms: _244  and  _245
REMARK   96  A    between atoms: _251  and  _253
REMARK   97  A    between atoms: _253  and  _254
REMARK   98  A    between atoms: _253  and  _256
REMARK   99  A    between atoms: _256  and  _257
REMARK  100  A    between atoms: _259  and  _261
REMARK  101  A    between atoms: _261  and  _262
REMARK  102  A    between atoms: _261  and  _264
REMARK  103  A    between atoms: _264  and  _265
REMARK  104  A    between atoms: _271  and  _273
REMARK  105  A    between atoms: _273  and  _274
REMARK  106  A    between atoms: _273  and  _276
REMARK  107  A    between atoms: _276  and  _277
REMARK  108  A    between atoms: _280  and  _282
REMARK  109  A    between atoms: _282  and  _283
REMARK  110  A    between atoms: _282  and  _285
REMARK  111  A    between atoms: _285  and  _286
REMARK  112  A    between atoms: _286  and  _287
REMARK  113  A    between atoms: _290  and  _292
REMARK  114  A    between atoms: _292  and  _293
REMARK  115  A    between atoms: _296  and  _298
REMARK  116  A    between atoms: _298  and  _299
REMARK                            x       y       z     vdW  Elec       q    Type
REMARK                         _______ _______ _______ _____ _____    ______ ____
ROOT
ATOM      1  O   HOH     1      24.653 -23.754  -5.555  0.00  0.00    +0.000 OA
ENDROOT
TORSDOF 0
REMARK  Name = ../refined-set-2016/4ai5/4ai5_pocket.pdb
REMARK  116 active torsions:
REMARK  status: ('A' for Active; 'I' for Inactive)
REMARK    1  A    between atoms: _1  and  _3
REMARK    2  A    between atoms: _3  and  _4
REMARK    3  A    between atoms: _3  and  _6
REMARK    4  A    between atoms: _8  and  _10
REMARK    5  A    between atoms: _10  and  _11
REMARK    6  A    between atoms: _14  and  _16
REMARK    7  A    between atoms: _16  and  _17
REMARK    8  A    between atoms: _16  and  _19
REMARK    9  A    between atoms: _19  and  _20
REMARK   10  A    between atoms: _26  and  _28
REMARK   11  A    between atoms: _28  and  _29
REMARK   12  A    between atoms: _28  and  _31
REMARK   13  A    between atoms: _31  and  _32
REMARK   14  A    between atoms: _37  and  _38
REMARK   15  A    between atoms: _40  and  _42
REMARK   16  A    between atoms: _42  and  _43
REMARK   17  A    between atoms: _42  and  _45
REMARK   18  A    between atoms: _45  and  _46
REMARK   19  A    between atoms: _52  and  _54
REMARK   20  A    between atoms: _54  and  _55
REMARK   21  A    between atoms: _54  and  _57
REMARK   22  A    between atoms: _57  and  _58
REMARK   23  A    between atoms: _63  and  _65
REMARK   24  A    between atoms: _65  and  _66
REMARK   25  A    between atoms: _65  and  _68
REMARK   26  A    between atoms: _71  and  _73
REMARK   27  A    between atoms: _73  and  _74
REMARK   28  A    between atoms: _73  and  _76
REMARK   29  A    between atoms: _76  and  _77
REMARK   30  A    between atoms: _87  and  _89
REMARK   31  A    between atoms: _89  and  _90
REMARK   32  A    between atoms: _92  and  _94
REMARK   33  A    between atoms: _94  and  _95
REMARK   34  A    between atoms: _94  and  _97
REMARK   35  A    between atoms: _97  and  _98
REMARK   36  A    between atoms: _101  and  _103
REMARK   37  A    between atoms: _103  and  _104
REMARK   38  A    between atoms: _103  and  _106
REMARK   39  A    between atoms: _106  and  _107
REMARK   40  A    between atoms: _110  and  _112
REMARK   41  A    between atoms: _112  and  _113
REMARK   42  A    between atoms: _112  and  _115
REMARK   43  A    between atoms: _115  and  _116
REMARK   44  A    between atoms: _116  and  _117
REMARK   45  A    between atoms: _120  and  _122
REMARK   46  A    between atoms: _122  and  _123
REMARK   47  A    between atoms: _122  and  _125
REMARK   48  A    between atoms: _125  and  _126
REMARK   49  A    between atoms: _128  and  _130
REMARK   50  A    between atoms: _130  and  _131
REMARK   51  A    between atoms: _130  and  _133
REMARK   52  A    between atoms: _133  and  _134
REMARK   53  A    between atoms: _139  and  _141
REMARK   54  A    between atoms: _141  and  _142
REMARK   55  A    between atoms: _145  and  _147
REMARK   56  A    between atoms: _147  and  _148
REMARK   57  A    between atoms: _147  and  _150
REMARK   58  A    between atoms: _150  and  _151
REMARK   59  A    between atoms: _154  and  _156
REMARK   60  A    between atoms: _156  and  _157
REMARK   61  A    between atoms: _156  and  _159
REMARK   62  A    between atoms: _159  and  _160
REMARK   63  A    between atoms: _162  and  _164
REMARK   64  A    between atoms: _164  and  _165
REMARK   65  A    between atoms: _164  and  _167
REMARK   66  A    between atoms: _167  and  _168
REMARK   67  A    between atoms: _178  and  _180
REMARK   68  A    between atoms: _180  and  _181
REMARK   69  A    between atoms: _180  and  _183
REMARK   70  A    between atoms: _183  and  _184
REMARK   71  A    between atoms: _187  and  _189
REMARK   72  A    between atoms: _189  and  _190
REMARK   73  A    between atoms: _189  and  _192
REMARK   74  A    between atoms: _192  and  _193
REMARK   75  A    between atoms: _196  and  _198
REMARK   76  A    between atoms: _198  and  _199
REMARK   77  A    between atoms: _198  and  _201
REMARK   78  A    between atoms: _201  and  _202
REMARK   79  A    between atoms: _205  and  _207
REMARK   80  A    between atoms: _207  and  _208
REMARK   81  A    between atoms: _207  and  _210
REMARK   82  A    between atoms: _210  and  _211
REMARK   83  A    between atoms: _211  and  _212
REMARK   84  A    between atoms: _212  and  _213
REMARK   85  A    between atoms: _222  and  _224
REMARK   86  A    between atoms: _224  and  _225
REMARK   87  A    between atoms: _224  and  _227
REMARK   88  A    between atoms: _230  and  _232
REMARK   89  A    between atoms: _232  and  _233
REMARK   90  A    between atoms: _232  and  _235
REMARK   91  A    between atoms: _235  and  _236
REMARK   92  A    between atoms: _239  and  _241
REMARK   93  A    between atoms: _241  and  _242
REMARK   94  A    between atoms: _241  and  _244
REMARK   95  A    between atoms: _244  and  _245
REMARK   96  A    between atoms: _251  and  _253
REMARK   97  A    between atoms: _253  and  _254
REMARK   98  A    between atoms: _253  and  _256
REMARK   99  A    between atoms: _256  and  _257
REMARK  100  A    between atoms: _259  and  _261
REMARK  101  A    between atoms: _261  and  _262
REMARK  102  A    between atoms: _261  and  _264
REMARK  103  A    between atoms: _264  and  _265
REMARK  104  A    between atoms: _271  and  _273
REMARK  105  A    between atoms: _273  and  _274
REMARK  106  A    between atoms: _273  and  _276
REMARK  107  A    between atoms: _276  and  _277
REMARK  108  A    between atoms: _280  and  _282
REMARK  109  A    between atoms: _282  and  _283
REMARK  110  A    between atoms: _282  and  _285
REMARK  111  A    between atoms: _285  and  _286
REMARK  112  A    between atoms: _286  and  _287
REMARK  113  A    between atoms: _290  and  _292
REMARK  114  A    between atoms: _292  and  _293
REMARK  115  A    between atoms: _296  and  _298
REMARK  116  A    between atoms: _298  and  _299
REMARK                            x       y       z     vdW  Elec       q    Type
REMARK                         _______ _______ _______ _____ _____    ______ ____
ROOT
ATOM      1  O   HOH     1      29.673 -12.287   5.453  0.00  0.00    +0.000 OA
ENDROOT
TORSDOF 0
REMARK  Name = ../refined-set-2016/4ai5/4ai5_pocket.pdb
REMARK  116 active torsions:
REMARK  status: ('A' for Active; 'I' for Inactive)
REMARK    1  A    between atoms: _1  and  _3
REMARK    2  A    between atoms: _3  and  _4
REMARK    3  A    between atoms: _3  and  _6
REMARK    4  A    between atoms: _8  and  _10
REMARK    5  A    between atoms: _10  and  _11
REMARK    6  A    between atoms: _14  and  _16
REMARK    7  A    between atoms: _16  and  _17
REMARK    8  A    between atoms: _16  and  _19
REMARK    9  A    between atoms: _19  and  _20
REMARK   10  A    between atoms: _26  and  _28
REMARK   11  A    between atoms: _28  and  _29
REMARK   12  A    between atoms: _28  and  _31
REMARK   13  A    between atoms: _31  and  _32
REMARK   14  A    between atoms: _37  and  _38
REMARK   15  A    between atoms: _40  and  _42
REMARK   16  A    between atoms: _42  and  _43
REMARK   17  A    between atoms: _42  and  _45
REMARK   18  A    between atoms: _45  and  _46
REMARK   19  A    between atoms: _52  and  _54
REMARK   20  A    between atoms: _54  and  _55
REMARK   21  A    between atoms: _54  and  _57
REMARK   22  A    between atoms: _57  and  _58
REMARK   23  A    between atoms: _63  and  _65
REMARK   24  A    between atoms: _65  and  _66
REMARK   25  A    between atoms: _65  and  _68
REMARK   26  A    between atoms: _71  and  _73
REMARK   27  A    between atoms: _73  and  _74
REMARK   28  A    between atoms: _73  and  _76
REMARK   29  A    between atoms: _76  and  _77
REMARK   30  A    between atoms: _87  and  _89
REMARK   31  A    between atoms: _89  and  _90
REMARK   32  A    between atoms: _92  and  _94
REMARK   33  A    between atoms: _94  and  _95
REMARK   34  A    between atoms: _94  and  _97
REMARK   35  A    between atoms: _97  and  _98
REMARK   36  A    between atoms: _101  and  _103
REMARK   37  A    between atoms: _103  and  _104
REMARK   38  A    between atoms: _103  and  _106
REMARK   39  A    between atoms: _106  and  _107
REMARK   40  A    between atoms: _110  and  _112
REMARK   41  A    between atoms: _112  and  _113
REMARK   42  A    between atoms: _112  and  _115
REMARK   43  A    between atoms: _115  and  _116
REMARK   44  A    between atoms: _116  and  _117
REMARK   45  A    between atoms: _120  and  _122
REMARK   46  A    between atoms: _122  and  _123
REMARK   47  A    between atoms: _122  and  _125
REMARK   48  A    between atoms: _125  and  _126
REMARK   49  A    between atoms: _128  and  _130
REMARK   50  A    between atoms: _130  and  _131
REMARK   51  A    between atoms: _130  and  _133
REMARK   52  A    between atoms: _133  and  _134
REMARK   53  A    between atoms: _139  and  _141
REMARK   54  A    between atoms: _141  and  _142
REMARK   55  A    between atoms: _145  and  _147
REMARK   56  A    between atoms: _147  and  _148
REMARK   57  A    between atoms: _147  and  _150
REMARK   58  A    between atoms: _150  and  _151
REMARK   59  A    between atoms: _154  and  _156
REMARK   60  A    between atoms: _156  and  _157
REMARK   61  A    between atoms: _156  and  _159
REMARK   62  A    between atoms: _159  and  _160
REMARK   63  A    between atoms: _162  and  _164
REMARK   64  A    between atoms: _164  and  _165
REMARK   65  A    between atoms: _164  and  _167
REMARK   66  A    between atoms: _167  and  _168
REMARK   67  A    between atoms: _178  and  _180
REMARK   68  A    between atoms: _180  and  _181
REMARK   69  A    between atoms: _180  and  _183
REMARK   70  A    between atoms: _183  and  _184
REMARK   71  A    between atoms: _187  and  _189
REMARK   72  A    between atoms: _189  and  _190
REMARK   73  A    between atoms: _189  and  _192
REMARK   74  A    between atoms: _192  and  _193
REMARK   75  A    between atoms: _196  and  _198
REMARK   76  A    between atoms: _198  and  _199
REMARK   77  A    between atoms: _198  and  _201
REMARK   78  A    between atoms: _201  and  _202
REMARK   79  A    between atoms: _205  and  _207
REMARK   80  A    between atoms: _207  and  _208
REMARK   81  A    between atoms: _207  and  _210
REMARK   82  A    between atoms: _210  and  _211
REMARK   83  A    between atoms: _211  and  _212
REMARK   84  A    between atoms: _212  and  _213
REMARK   85  A    between atoms: _222  and  _224
REMARK   86  A    between atoms: _224  and  _225
REMARK   87  A    between atoms: _224  and  _227
REMARK   88  A    between atoms: _230  and  _232
REMARK   89  A    between atoms: _232  and  _233
REMARK   90  A    between atoms: _232  and  _235
REMARK   91  A    between atoms: _235  and  _236
REMARK   92  A    between atoms: _239  and  _241
REMARK   93  A    between atoms: _241  and  _242
REMARK   94  A    between atoms: _241  and  _244
REMARK   95  A    between atoms: _244  and  _245
REMARK   96  A    between atoms: _251  and  _253
REMARK   97  A    between atoms: _253  and  _254
REMARK   98  A    between atoms: _253  and  _256
REMARK   99  A    between atoms: _256  and  _257
REMARK  100  A    between atoms: _259  and  _261
REMARK  101  A    between atoms: _261  and  _262
REMARK  102  A    between atoms: _261  and  _264
REMARK  103  A    between atoms: _264  and  _265
REMARK  104  A    between atoms: _271  and  _273
REMARK  105  A    between atoms: _273  and  _274
REMARK  106  A    between atoms: _273  and  _276
REMARK  107  A    between atoms: _276  and  _277
REMARK  108  A    between atoms: _280  and  _282
REMARK  109  A    between atoms: _282  and  _283
REMARK  110  A    between atoms: _282  and  _285
REMARK  111  A    between atoms: _285  and  _286
REMARK  112  A    between atoms: _286  and  _287
REMARK  113  A    between atoms: _290  and  _292
REMARK  114  A    between atoms: _292  and  _293
REMARK  115  A    between atoms: _296  and  _298
REMARK  116  A    between atoms: _298  and  _299
REMARK                            x       y       z     vdW  Elec       q    Type
REMARK                         _______ _______ _______ _____ _____    ______ ____
ROOT
ATOM      1  O   HOH     1      30.535 -15.473   1.846  0.00  0.00    +0.000 OA
ENDROOT
TORSDOF 0
REMARK  Name = ../refined-set-2016/4ai5/4ai5_pocket.pdb
REMARK  116 active torsions:
REMARK  status: ('A' for Active; 'I' for Inactive)
REMARK    1  A    between atoms: _1  and  _3
REMARK    2  A    between atoms: _3  and  _4
REMARK    3  A    between atoms: _3  and  _6
REMARK    4  A    between atoms: _8  and  _10
REMARK    5  A    between atoms: _10  and  _11
REMARK    6  A    between atoms: _14  and  _16
REMARK    7  A    between atoms: _16  and  _17
REMARK    8  A    between atoms: _16  and  _19
REMARK    9  A    between atoms: _19  and  _20
REMARK   10  A    between atoms: _26  and  _28
REMARK   11  A    between atoms: _28  and  _29
REMARK   12  A    between atoms: _28  and  _31
REMARK   13  A    between atoms: _31  and  _32
REMARK   14  A    between atoms: _37  and  _38
REMARK   15  A    between atoms: _40  and  _42
REMARK   16  A    between atoms: _42  and  _43
REMARK   17  A    between atoms: _42  and  _45
REMARK   18  A    between atoms: _45  and  _46
REMARK   19  A    between atoms: _52  and  _54
REMARK   20  A    between atoms: _54  and  _55
REMARK   21  A    between atoms: _54  and  _57
REMARK   22  A    between atoms: _57  and  _58
REMARK   23  A    between atoms: _63  and  _65
REMARK   24  A    between atoms: _65  and  _66
REMARK   25  A    between atoms: _65  and  _68
REMARK   26  A    between atoms: _71  and  _73
REMARK   27  A    between atoms: _73  and  _74
REMARK   28  A    between atoms: _73  and  _76
REMARK   29  A    between atoms: _76  and  _77
REMARK   30  A    between atoms: _87  and  _89
REMARK   31  A    between atoms: _89  and  _90
REMARK   32  A    between atoms: _92  and  _94
REMARK   33  A    between atoms: _94  and  _95
REMARK   34  A    between atoms: _94  and  _97
REMARK   35  A    between atoms: _97  and  _98
REMARK   36  A    between atoms: _101  and  _103
REMARK   37  A    between atoms: _103  and  _104
REMARK   38  A    between atoms: _103  and  _106
REMARK   39  A    between atoms: _106  and  _107
REMARK   40  A    between atoms: _110  and  _112
REMARK   41  A    between atoms: _112  and  _113
REMARK   42  A    between atoms: _112  and  _115
REMARK   43  A    between atoms: _115  and  _116
REMARK   44  A    between atoms: _116  and  _117
REMARK   45  A    between atoms: _120  and  _122
REMARK   46  A    between atoms: _122  and  _123
REMARK   47  A    between atoms: _122  and  _125
REMARK   48  A    between atoms: _125  and  _126
REMARK   49  A    between atoms: _128  and  _130
REMARK   50  A    between atoms: _130  and  _131
REMARK   51  A    between atoms: _130  and  _133
REMARK   52  A    between atoms: _133  and  _134
REMARK   53  A    between atoms: _139  and  _141
REMARK   54  A    between atoms: _141  and  _142
REMARK   55  A    between atoms: _145  and  _147
REMARK   56  A    between atoms: _147  and  _148
REMARK   57  A    between atoms: _147  and  _150
REMARK   58  A    between atoms: _150  and  _151
REMARK   59  A    between atoms: _154  and  _156
REMARK   60  A    between atoms: _156  and  _157
REMARK   61  A    between atoms: _156  and  _159
REMARK   62  A    between atoms: _159  and  _160
REMARK   63  A    between atoms: _162  and  _164
REMARK   64  A    between atoms: _164  and  _165
REMARK   65  A    between atoms: _164  and  _167
REMARK   66  A    between atoms: _167  and  _168
REMARK   67  A    between atoms: _178  and  _180
REMARK   68  A    between atoms: _180  and  _181
REMARK   69  A    between atoms: _180  and  _183
REMARK   70  A    between atoms: _183  and  _184
REMARK   71  A    between atoms: _187  and  _189
REMARK   72  A    between atoms: _189  and  _190
REMARK   73  A    between atoms: _189  and  _192
REMARK   74  A    between atoms: _192  and  _193
REMARK   75  A    between atoms: _196  and  _198
REMARK   76  A    between atoms: _198  and  _199
REMARK   77  A    between atoms: _198  and  _201
REMARK   78  A    between atoms: _201  and  _202
REMARK   79  A    between atoms: _205  and  _207
REMARK   80  A    between atoms: _207  and  _208
REMARK   81  A    between atoms: _207  and  _210
REMARK   82  A    between atoms: _210  and  _211
REMARK   83  A    between atoms: _211  and  _212
REMARK   84  A    between atoms: _212  and  _213
REMARK   85  A    between atoms: _222  and  _224
REMARK   86  A    between atoms: _224  and  _225
REMARK   87  A    between atoms: _224  and  _227
REMARK   88  A    between atoms: _230  and  _232
REMARK   89  A    between atoms: _232  and  _233
REMARK   90  A    between atoms: _232  and  _235
REMARK   91  A    between atoms: _235  and  _236
REMARK   92  A    between atoms: _239  and  _241
REMARK   93  A    between atoms: _241  and  _242
REMARK   94  A    between atoms: _241  and  _244
REMARK   95  A    between atoms: _244  and  _245
REMARK   96  A    between atoms: _251  and  _253
REMARK   97  A    between atoms: _253  and  _254
REMARK   98  A    between atoms: _253  and  _256
REMARK   99  A    between atoms: _256  and  _257
REMARK  100  A    between atoms: _259  and  _261
REMARK  101  A    between atoms: _261  and  _262
REMARK  102  A    between atoms: _261  and  _264
REMARK  103  A    between atoms: _264  and  _265
REMARK  104  A    between atoms: _271  and  _273
REMARK  105  A    between atoms: _273  and  _274
REMARK  106  A    between atoms: _273  and  _276
REMARK  107  A    between atoms: _276  and  _277
REMARK  108  A    between atoms: _280  and  _282
REMARK  109  A    between atoms: _282  and  _283
REMARK  110  A    between atoms: _282  and  _285
REMARK  111  A    between atoms: _285  and  _286
REMARK  112  A    between atoms: _286  and  _287
REMARK  113  A    between atoms: _290  and  _292
REMARK  114  A    between atoms: _292  and  _293
REMARK  115  A    between atoms: _296  and  _298
REMARK  116  A    between atoms: _298  and  _299
REMARK                            x       y       z     vdW  Elec       q    Type
REMARK                         _______ _______ _______ _____ _____    ______ ____
ROOT
ATOM      1  O   HOH     1      31.543 -13.469   3.791  0.00  0.00    +0.000 OA
ENDROOT
TORSDOF 0
REMARK  Name = ../refined-set-2016/4ai5/4ai5_pocket.pdb
REMARK  116 active torsions:
REMARK  status: ('A' for Active; 'I' for Inactive)
REMARK    1  A    between atoms: _1  and  _3
REMARK    2  A    between atoms: _3  and  _4
REMARK    3  A    between atoms: _3  and  _6
REMARK    4  A    between atoms: _8  and  _10
REMARK    5  A    between atoms: _10  and  _11
REMARK    6  A    between atoms: _14  and  _16
REMARK    7  A    between atoms: _16  and  _17
REMARK    8  A    between atoms: _16  and  _19
REMARK    9  A    between atoms: _19  and  _20
REMARK   10  A    between atoms: _26  and  _28
REMARK   11  A    between atoms: _28  and  _29
REMARK   12  A    between atoms: _28  and  _31
REMARK   13  A    between atoms: _31  and  _32
REMARK   14  A    between atoms: _37  and  _38
REMARK   15  A    between atoms: _40  and  _42
REMARK   16  A    between atoms: _42  and  _43
REMARK   17  A    between atoms: _42  and  _45
REMARK   18  A    between atoms: _45  and  _46
REMARK   19  A    between atoms: _52  and  _54
REMARK   20  A    between atoms: _54  and  _55
REMARK   21  A    between atoms: _54  and  _57
REMARK   22  A    between atoms: _57  and  _58
REMARK   23  A    between atoms: _63  and  _65
REMARK   24  A    between atoms: _65  and  _66
REMARK   25  A    between atoms: _65  and  _68
REMARK   26  A    between atoms: _71  and  _73
REMARK   27  A    between atoms: _73  and  _74
REMARK   28  A    between atoms: _73  and  _76
REMARK   29  A    between atoms: _76  and  _77
REMARK   30  A    between atoms: _87  and  _89
REMARK   31  A    between atoms: _89  and  _90
REMARK   32  A    between atoms: _92  and  _94
REMARK   33  A    between atoms: _94  and  _95
REMARK   34  A    between atoms: _94  and  _97
REMARK   35  A    between atoms: _97  and  _98
REMARK   36  A    between atoms: _101  and  _103
REMARK   37  A    between atoms: _103  and  _104
REMARK   38  A    between atoms: _103  and  _106
REMARK   39  A    between atoms: _106  and  _107
REMARK   40  A    between atoms: _110  and  _112
REMARK   41  A    between atoms: _112  and  _113
REMARK   42  A    between atoms: _112  and  _115
REMARK   43  A    between atoms: _115  and  _116
REMARK   44  A    between atoms: _116  and  _117
REMARK   45  A    between atoms: _120  and  _122
REMARK   46  A    between atoms: _122  and  _123
REMARK   47  A    between atoms: _122  and  _125
REMARK   48  A    between atoms: _125  and  _126
REMARK   49  A    between atoms: _128  and  _130
REMARK   50  A    between atoms: _130  and  _131
REMARK   51  A    between atoms: _130  and  _133
REMARK   52  A    between atoms: _133  and  _134
REMARK   53  A    between atoms: _139  and  _141
REMARK   54  A    between atoms: _141  and  _142
REMARK   55  A    between atoms: _145  and  _147
REMARK   56  A    between atoms: _147  and  _148
REMARK   57  A    between atoms: _147  and  _150
REMARK   58  A    between atoms: _150  and  _151
REMARK   59  A    between atoms: _154  and  _156
REMARK   60  A    between atoms: _156  and  _157
REMARK   61  A    between atoms: _156  and  _159
REMARK   62  A    between atoms: _159  and  _160
REMARK   63  A    between atoms: _162  and  _164
REMARK   64  A    between atoms: _164  and  _165
REMARK   65  A    between atoms: _164  and  _167
REMARK   66  A    between atoms: _167  and  _168
REMARK   67  A    between atoms: _178  and  _180
REMARK   68  A    between atoms: _180  and  _181
REMARK   69  A    between atoms: _180  and  _183
REMARK   70  A    between atoms: _183  and  _184
REMARK   71  A    between atoms: _187  and  _189
REMARK   72  A    between atoms: _189  and  _190
REMARK   73  A    between atoms: _189  and  _192
REMARK   74  A    between atoms: _192  and  _193
REMARK   75  A    between atoms: _196  and  _198
REMARK   76  A    between atoms: _198  and  _199
REMARK   77  A    between atoms: _198  and  _201
REMARK   78  A    between atoms: _201  and  _202
REMARK   79  A    between atoms: _205  and  _207
REMARK   80  A    between atoms: _207  and  _208
REMARK   81  A    between atoms: _207  and  _210
REMARK   82  A    between atoms: _210  and  _211
REMARK   83  A    between atoms: _211  and  _212
REMARK   84  A    between atoms: _212  and  _213
REMARK   85  A    between atoms: _222  and  _224
REMARK   86  A    between atoms: _224  and  _225
REMARK   87  A    between atoms: _224  and  _227
REMARK   88  A    between atoms: _230  and  _232
REMARK   89  A    between atoms: _232  and  _233
REMARK   90  A    between atoms: _232  and  _235
REMARK   91  A    between atoms: _235  and  _236
REMARK   92  A    between atoms: _239  and  _241
REMARK   93  A    between atoms: _241  and  _242
REMARK   94  A    between atoms: _241  and  _244
REMARK   95  A    between atoms: _244  and  _245
REMARK   96  A    between atoms: _251  and  _253
REMARK   97  A    between atoms: _253  and  _254
REMARK   98  A    between atoms: _253  and  _256
REMARK   99  A    between atoms: _256  and  _257
REMARK  100  A    between atoms: _259  and  _261
REMARK  101  A    between atoms: _261  and  _262
REMARK  102  A    between atoms: _261  and  _264
REMARK  103  A    between atoms: _264  and  _265
REMARK  104  A    between atoms: _271  and  _273
REMARK  105  A    between atoms: _273  and  _274
REMARK  106  A    between atoms: _273  and  _276
REMARK  107  A    between atoms: _276  and  _277
REMARK  108  A    between atoms: _280  and  _282
REMARK  109  A    between atoms: _282  and  _283
REMARK  110  A    between atoms: _282  and  _285
REMARK  111  A    between atoms: _285  and  _286
REMARK  112  A    between atoms: _286  and  _287
REMARK  113  A    between atoms: _290  and  _292
REMARK  114  A    between atoms: _292  and  _293
REMARK  115  A    between atoms: _296  and  _298
REMARK  116  A    between atoms: _298  and  _299
REMARK                            x       y       z     vdW  Elec       q    Type
REMARK                         _______ _______ _______ _____ _____    ______ ____
ROOT
ATOM      1  O   HOH     1      33.370 -21.127  -3.923  0.00  0.00    +0.000 OA
ENDROOT
TORSDOF 0
REMARK  Name = ../refined-set-2016/4ai5/4ai5_pocket.pdb
REMARK  116 active torsions:
REMARK  status: ('A' for Active; 'I' for Inactive)
REMARK    1  A    between atoms: _1  and  _3
REMARK    2  A    between atoms: _3  and  _4
REMARK    3  A    between atoms: _3  and  _6
REMARK    4  A    between atoms: _8  and  _10
REMARK    5  A    between atoms: _10  and  _11
REMARK    6  A    between atoms: _14  and  _16
REMARK    7  A    between atoms: _16  and  _17
REMARK    8  A    between atoms: _16  and  _19
REMARK    9  A    between atoms: _19  and  _20
REMARK   10  A    between atoms: _26  and  _28
REMARK   11  A    between atoms: _28  and  _29
REMARK   12  A    between atoms: _28  and  _31
REMARK   13  A    between atoms: _31  and  _32
REMARK   14  A    between atoms: _37  and  _38
REMARK   15  A    between atoms: _40  and  _42
REMARK   16  A    between atoms: _42  and  _43
REMARK   17  A    between atoms: _42  and  _45
REMARK   18  A    between atoms: _45  and  _46
REMARK   19  A    between atoms: _52  and  _54
REMARK   20  A    between atoms: _54  and  _55
REMARK   21  A    between atoms: _54  and  _57
REMARK   22  A    between atoms: _57  and  _58
REMARK   23  A    between atoms: _63  and  _65
REMARK   24  A    between atoms: _65  and  _66
REMARK   25  A    between atoms: _65  and  _68
REMARK   26  A    between atoms: _71  and  _73
REMARK   27  A    between atoms: _73  and  _74
REMARK   28  A    between atoms: _73  and  _76
REMARK   29  A    between atoms: _76  and  _77
REMARK   30  A    between atoms: _87  and  _89
REMARK   31  A    between atoms: _89  and  _90
REMARK   32  A    between atoms: _92  and  _94
REMARK   33  A    between atoms: _94  and  _95
REMARK   34  A    between atoms: _94  and  _97
REMARK   35  A    between atoms: _97  and  _98
REMARK   36  A    between atoms: _101  and  _103
REMARK   37  A    between atoms: _103  and  _104
REMARK   38  A    between atoms: _103  and  _106
REMARK   39  A    between atoms: _106  and  _107
REMARK   40  A    between atoms: _110  and  _112
REMARK   41  A    between atoms: _112  and  _113
REMARK   42  A    between atoms: _112  and  _115
REMARK   43  A    between atoms: _115  and  _116
REMARK   44  A    between atoms: _116  and  _117
REMARK   45  A    between atoms: _120  and  _122
REMARK   46  A    between atoms: _122  and  _123
REMARK   47  A    between atoms: _122  and  _125
REMARK   48  A    between atoms: _125  and  _126
REMARK   49  A    between atoms: _128  and  _130
REMARK   50  A    between atoms: _130  and  _131
REMARK   51  A    between atoms: _130  and  _133
REMARK   52  A    between atoms: _133  and  _134
REMARK   53  A    between atoms: _139  and  _141
REMARK   54  A    between atoms: _141  and  _142
REMARK   55  A    between atoms: _145  and  _147
REMARK   56  A    between atoms: _147  and  _148
REMARK   57  A    between atoms: _147  and  _150
REMARK   58  A    between atoms: _150  and  _151
REMARK   59  A    between atoms: _154  and  _156
REMARK   60  A    between atoms: _156  and  _157
REMARK   61  A    between atoms: _156  and  _159
REMARK   62  A    between atoms: _159  and  _160
REMARK   63  A    between atoms: _162  and  _164
REMARK   64  A    between atoms: _164  and  _165
REMARK   65  A    between atoms: _164  and  _167
REMARK   66  A    between atoms: _167  and  _168
REMARK   67  A    between atoms: _178  and  _180
REMARK   68  A    between atoms: _180  and  _181
REMARK   69  A    between atoms: _180  and  _183
REMARK   70  A    between atoms: _183  and  _184
REMARK   71  A    between atoms: _187  and  _189
REMARK   72  A    between atoms: _189  and  _190
REMARK   73  A    between atoms: _189  and  _192
REMARK   74  A    between atoms: _192  and  _193
REMARK   75  A    between atoms: _196  and  _198
REMARK   76  A    between atoms: _198  and  _199
REMARK   77  A    between atoms: _198  and  _201
REMARK   78  A    between atoms: _201  and  _202
REMARK   79  A    between atoms: _205  and  _207
REMARK   80  A    between atoms: _207  and  _208
REMARK   81  A    between atoms: _207  and  _210
REMARK   82  A    between atoms: _210  and  _211
REMARK   83  A    between atoms: _211  and  _212
REMARK   84  A    between atoms: _212  and  _213
REMARK   85  A    between atoms: _222  and  _224
REMARK   86  A    between atoms: _224  and  _225
REMARK   87  A    between atoms: _224  and  _227
REMARK   88  A    between atoms: _230  and  _232
REMARK   89  A    between atoms: _232  and  _233
REMARK   90  A    between atoms: _232  and  _235
REMARK   91  A    between atoms: _235  and  _236
REMARK   92  A    between atoms: _239  and  _241
REMARK   93  A    between atoms: _241  and  _242
REMARK   94  A    between atoms: _241  and  _244
REMARK   95  A    between atoms: _244  and  _245
REMARK   96  A    between atoms: _251  and  _253
REMARK   97  A    between atoms: _253  and  _254
REMARK   98  A    between atoms: _253  and  _256
REMARK   99  A    between atoms: _256  and  _257
REMARK  100  A    between atoms: _259  and  _261
REMARK  101  A    between atoms: _261  and  _262
REMARK  102  A    between atoms: _261  and  _264
REMARK  103  A    between atoms: _264  and  _265
REMARK  104  A    between atoms: _271  and  _273
REMARK  105  A    between atoms: _273  and  _274
REMARK  106  A    between atoms: _273  and  _276
REMARK  107  A    between atoms: _276  and  _277
REMARK  108  A    between atoms: _280  and  _282
REMARK  109  A    between atoms: _282  and  _283
REMARK  110  A    between atoms: _282  and  _285
REMARK  111  A    between atoms: _285  and  _286
REMARK  112  A    between atoms: _286  and  _287
REMARK  113  A    between atoms: _290  and  _292
REMARK  114  A    between atoms: _292  and  _293
REMARK  115  A    between atoms: _296  and  _298
REMARK  116  A    between atoms: _298  and  _299
REMARK                            x       y       z     vdW  Elec       q    Type
REMARK                         _______ _______ _______ _____ _____    ______ ____
ROOT
ATOM      1  O   HOH     1      31.866 -16.549  -2.640  0.00  0.00    +0.000 OA
ENDROOT
TORSDOF 0
REMARK  Name = ../refined-set-2016/4ai5/4ai5_pocket.pdb
REMARK  116 active torsions:
REMARK  status: ('A' for Active; 'I' for Inactive)
REMARK    1  A    between atoms: _1  and  _3
REMARK    2  A    between atoms: _3  and  _4
REMARK    3  A    between atoms: _3  and  _6
REMARK    4  A    between atoms: _8  and  _10
REMARK    5  A    between atoms: _10  and  _11
REMARK    6  A    between atoms: _14  and  _16
REMARK    7  A    between atoms: _16  and  _17
REMARK    8  A    between atoms: _16  and  _19
REMARK    9  A    between atoms: _19  and  _20
REMARK   10  A    between atoms: _26  and  _28
REMARK   11  A    between atoms: _28  and  _29
REMARK   12  A    between atoms: _28  and  _31
REMARK   13  A    between atoms: _31  and  _32
REMARK   14  A    between atoms: _37  and  _38
REMARK   15  A    between atoms: _40  and  _42
REMARK   16  A    between atoms: _42  and  _43
REMARK   17  A    between atoms: _42  and  _45
REMARK   18  A    between atoms: _45  and  _46
REMARK   19  A    between atoms: _52  and  _54
REMARK   20  A    between atoms: _54  and  _55
REMARK   21  A    between atoms: _54  and  _57
REMARK   22  A    between atoms: _57  and  _58
REMARK   23  A    between atoms: _63  and  _65
REMARK   24  A    between atoms: _65  and  _66
REMARK   25  A    between atoms: _65  and  _68
REMARK   26  A    between atoms: _71  and  _73
REMARK   27  A    between atoms: _73  and  _74
REMARK   28  A    between atoms: _73  and  _76
REMARK   29  A    between atoms: _76  and  _77
REMARK   30  A    between atoms: _87  and  _89
REMARK   31  A    between atoms: _89  and  _90
REMARK   32  A    between atoms: _92  and  _94
REMARK   33  A    between atoms: _94  and  _95
REMARK   34  A    between atoms: _94  and  _97
REMARK   35  A    between atoms: _97  and  _98
REMARK   36  A    between atoms: _101  and  _103
REMARK   37  A    between atoms: _103  and  _104
REMARK   38  A    between atoms: _103  and  _106
REMARK   39  A    between atoms: _106  and  _107
REMARK   40  A    between atoms: _110  and  _112
REMARK   41  A    between atoms: _112  and  _113
REMARK   42  A    between atoms: _112  and  _115
REMARK   43  A    between atoms: _115  and  _116
REMARK   44  A    between atoms: _116  and  _117
REMARK   45  A    between atoms: _120  and  _122
REMARK   46  A    between atoms: _122  and  _123
REMARK   47  A    between atoms: _122  and  _125
REMARK   48  A    between atoms: _125  and  _126
REMARK   49  A    between atoms: _128  and  _130
REMARK   50  A    between atoms: _130  and  _131
REMARK   51  A    between atoms: _130  and  _133
REMARK   52  A    between atoms: _133  and  _134
REMARK   53  A    between atoms: _139  and  _141
REMARK   54  A    between atoms: _141  and  _142
REMARK   55  A    between atoms: _145  and  _147
REMARK   56  A    between atoms: _147  and  _148
REMARK   57  A    between atoms: _147  and  _150
REMARK   58  A    between atoms: _150  and  _151
REMARK   59  A    between atoms: _154  and  _156
REMARK   60  A    between atoms: _156  and  _157
REMARK   61  A    between atoms: _156  and  _159
REMARK   62  A    between atoms: _159  and  _160
REMARK   63  A    between atoms: _162  and  _164
REMARK   64  A    between atoms: _164  and  _165
REMARK   65  A    between atoms: _164  and  _167
REMARK   66  A    between atoms: _167  and  _168
REMARK   67  A    between atoms: _178  and  _180
REMARK   68  A    between atoms: _180  and  _181
REMARK   69  A    between atoms: _180  and  _183
REMARK   70  A    between atoms: _183  and  _184
REMARK   71  A    between atoms: _187  and  _189
REMARK   72  A    between atoms: _189  and  _190
REMARK   73  A    between atoms: _189  and  _192
REMARK   74  A    between atoms: _192  and  _193
REMARK   75  A    between atoms: _196  and  _198
REMARK   76  A    between atoms: _198  and  _199
REMARK   77  A    between atoms: _198  and  _201
REMARK   78  A    between atoms: _201  and  _202
REMARK   79  A    between atoms: _205  and  _207
REMARK   80  A    between atoms: _207  and  _208
REMARK   81  A    between atoms: _207  and  _210
REMARK   82  A    between atoms: _210  and  _211
REMARK   83  A    between atoms: _211  and  _212
REMARK   84  A    between atoms: _212  and  _213
REMARK   85  A    between atoms: _222  and  _224
REMARK   86  A    between atoms: _224  and  _225
REMARK   87  A    between atoms: _224  and  _227
REMARK   88  A    between atoms: _230  and  _232
REMARK   89  A    between atoms: _232  and  _233
REMARK   90  A    between atoms: _232  and  _235
REMARK   91  A    between atoms: _235  and  _236
REMARK   92  A    between atoms: _239  and  _241
REMARK   93  A    between atoms: _241  and  _242
REMARK   94  A    between atoms: _241  and  _244
REMARK   95  A    between atoms: _244  and  _245
REMARK   96  A    between atoms: _251  and  _253
REMARK   97  A    between atoms: _253  and  _254
REMARK   98  A    between atoms: _253  and  _256
REMARK   99  A    between atoms: _256  and  _257
REMARK  100  A    between atoms: _259  and  _261
REMARK  101  A    between atoms: _261  and  _262
REMARK  102  A    between atoms: _261  and  _264
REMARK  103  A    between atoms: _264  and  _265
REMARK  104  A    between atoms: _271  and  _273
REMARK  105  A    between atoms: _273  and  _274
REMARK  106  A    between atoms: _273  and  _276
REMARK  107  A    between atoms: _276  and  _277
REMARK  108  A    between atoms: _280  and  _282
REMARK  109  A    between atoms: _282  and  _283
REMARK  110  A    between atoms: _282  and  _285
REMARK  111  A    between atoms: _285  and  _286
REMARK  112  A    between atoms: _286  and  _287
REMARK  113  A    between atoms: _290  and  _292
REMARK  114  A    between atoms: _292  and  _293
REMARK  115  A    between atoms: _296  and  _298
REMARK  116  A    between atoms: _298  and  _299
REMARK                            x       y       z     vdW  Elec       q    Type
REMARK                         _______ _______ _______ _____ _____    ______ ____
ROOT
ATOM      1  O   HOH     1      30.529 -19.750  -0.116  0.00  0.00    +0.000 OA
ENDROOT
TORSDOF 0
REMARK  Name = ../refined-set-2016/4ai5/4ai5_pocket.pdb
REMARK  116 active torsions:
REMARK  status: ('A' for Active; 'I' for Inactive)
REMARK    1  A    between atoms: _1  and  _3
REMARK    2  A    between atoms: _3  and  _4
REMARK    3  A    between atoms: _3  and  _6
REMARK    4  A    between atoms: _8  and  _10
REMARK    5  A    between atoms: _10  and  _11
REMARK    6  A    between atoms: _14  and  _16
REMARK    7  A    between atoms: _16  and  _17
REMARK    8  A    between atoms: _16  and  _19
REMARK    9  A    between atoms: _19  and  _20
REMARK   10  A    between atoms: _26  and  _28
REMARK   11  A    between atoms: _28  and  _29
REMARK   12  A    between atoms: _28  and  _31
REMARK   13  A    between atoms: _31  and  _32
REMARK   14  A    between atoms: _37  and  _38
REMARK   15  A    between atoms: _40  and  _42
REMARK   16  A    between atoms: _42  and  _43
REMARK   17  A    between atoms: _42  and  _45
REMARK   18  A    between atoms: _45  and  _46
REMARK   19  A    between atoms: _52  and  _54
REMARK   20  A    between atoms: _54  and  _55
REMARK   21  A    between atoms: _54  and  _57
REMARK   22  A    between atoms: _57  and  _58
REMARK   23  A    between atoms: _63  and  _65
REMARK   24  A    between atoms: _65  and  _66
REMARK   25  A    between atoms: _65  and  _68
REMARK   26  A    between atoms: _71  and  _73
REMARK   27  A    between atoms: _73  and  _74
REMARK   28  A    between atoms: _73  and  _76
REMARK   29  A    between atoms: _76  and  _77
REMARK   30  A    between atoms: _87  and  _89
REMARK   31  A    between atoms: _89  and  _90
REMARK   32  A    between atoms: _92  and  _94
REMARK   33  A    between atoms: _94  and  _95
REMARK   34  A    between atoms: _94  and  _97
REMARK   35  A    between atoms: _97  and  _98
REMARK   36  A    between atoms: _101  and  _103
REMARK   37  A    between atoms: _103  and  _104
REMARK   38  A    between atoms: _103  and  _106
REMARK   39  A    between atoms: _106  and  _107
REMARK   40  A    between atoms: _110  and  _112
REMARK   41  A    between atoms: _112  and  _113
REMARK   42  A    between atoms: _112  and  _115
REMARK   43  A    between atoms: _115  and  _116
REMARK   44  A    between atoms: _116  and  _117
REMARK   45  A    between atoms: _120  and  _122
REMARK   46  A    between atoms: _122  and  _123
REMARK   47  A    between atoms: _122  and  _125
REMARK   48  A    between atoms: _125  and  _126
REMARK   49  A    between atoms: _128  and  _130
REMARK   50  A    between atoms: _130  and  _131
REMARK   51  A    between atoms: _130  and  _133
REMARK   52  A    between atoms: _133  and  _134
REMARK   53  A    between atoms: _139  and  _141
REMARK   54  A    between atoms: _141  and  _142
REMARK   55  A    between atoms: _145  and  _147
REMARK   56  A    between atoms: _147  and  _148
REMARK   57  A    between atoms: _147  and  _150
REMARK   58  A    between atoms: _150  and  _151
REMARK   59  A    between atoms: _154  and  _156
REMARK   60  A    between atoms: _156  and  _157
REMARK   61  A    between atoms: _156  and  _159
REMARK   62  A    between atoms: _159  and  _160
REMARK   63  A    between atoms: _162  and  _164
REMARK   64  A    between atoms: _164  and  _165
REMARK   65  A    between atoms: _164  and  _167
REMARK   66  A    between atoms: _167  and  _168
REMARK   67  A    between atoms: _178  and  _180
REMARK   68  A    between atoms: _180  and  _181
REMARK   69  A    between atoms: _180  and  _183
REMARK   70  A    between atoms: _183  and  _184
REMARK   71  A    between atoms: _187  and  _189
REMARK   72  A    between atoms: _189  and  _190
REMARK   73  A    between atoms: _189  and  _192
REMARK   74  A    between atoms: _192  and  _193
REMARK   75  A    between atoms: _196  and  _198
REMARK   76  A    between atoms: _198  and  _199
REMARK   77  A    between atoms: _198  and  _201
REMARK   78  A    between atoms: _201  and  _202
REMARK   79  A    between atoms: _205  and  _207
REMARK   80  A    between atoms: _207  and  _208
REMARK   81  A    between atoms: _207  and  _210
REMARK   82  A    between atoms: _210  and  _211
REMARK   83  A    between atoms: _211  and  _212
REMARK   84  A    between atoms: _212  and  _213
REMARK   85  A    between atoms: _222  and  _224
REMARK   86  A    between atoms: _224  and  _225
REMARK   87  A    between atoms: _224  and  _227
REMARK   88  A    between atoms: _230  and  _232
REMARK   89  A    between atoms: _232  and  _233
REMARK   90  A    between atoms: _232  and  _235
REMARK   91  A    between atoms: _235  and  _236
REMARK   92  A    between atoms: _239  and  _241
REMARK   93  A    between atoms: _241  and  _242
REMARK   94  A    between atoms: _241  and  _244
REMARK   95  A    between atoms: _244  and  _245
REMARK   96  A    between atoms: _251  and  _253
REMARK   97  A    between atoms: _253  and  _254
REMARK   98  A    between atoms: _253  and  _256
REMARK   99  A    between atoms: _256  and  _257
REMARK  100  A    between atoms: _259  and  _261
REMARK  101  A    between atoms: _261  and  _262
REMARK  102  A    between atoms: _261  and  _264
REMARK  103  A    between atoms: _264  and  _265
REMARK  104  A    between atoms: _271  and  _273
REMARK  105  A    between atoms: _273  and  _274
REMARK  106  A    between atoms: _273  and  _276
REMARK  107  A    between atoms: _276  and  _277
REMARK  108  A    between atoms: _280  and  _282
REMARK  109  A    between atoms: _282  and  _283
REMARK  110  A    between atoms: _282  and  _285
REMARK  111  A    between atoms: _285  and  _286
REMARK  112  A    between atoms: _286  and  _287
REMARK  113  A    between atoms: _290  and  _292
REMARK  114  A    between atoms: _292  and  _293
REMARK  115  A    between atoms: _296  and  _298
REMARK  116  A    between atoms: _298  and  _299
REMARK                            x       y       z     vdW  Elec       q    Type
REMARK                         _______ _______ _______ _____ _____    ______ ____
ROOT
ATOM      1  O   HOH     1      31.538 -19.474  -2.992  0.00  0.00    +0.000 OA
ENDROOT
TORSDOF 0
REMARK  Name = ../refined-set-2016/4ai5/4ai5_pocket.pdb
REMARK  116 active torsions:
REMARK  status: ('A' for Active; 'I' for Inactive)
REMARK    1  A    between atoms: _1  and  _3
REMARK    2  A    between atoms: _3  and  _4
REMARK    3  A    between atoms: _3  and  _6
REMARK    4  A    between atoms: _8  and  _10
REMARK    5  A    between atoms: _10  and  _11
REMARK    6  A    between atoms: _14  and  _16
REMARK    7  A    between atoms: _16  and  _17
REMARK    8  A    between atoms: _16  and  _19
REMARK    9  A    between atoms: _19  and  _20
REMARK   10  A    between atoms: _26  and  _28
REMARK   11  A    between atoms: _28  and  _29
REMARK   12  A    between atoms: _28  and  _31
REMARK   13  A    between atoms: _31  and  _32
REMARK   14  A    between atoms: _37  and  _38
REMARK   15  A    between atoms: _40  and  _42
REMARK   16  A    between atoms: _42  and  _43
REMARK   17  A    between atoms: _42  and  _45
REMARK   18  A    between atoms: _45  and  _46
REMARK   19  A    between atoms: _52  and  _54
REMARK   20  A    between atoms: _54  and  _55
REMARK   21  A    between atoms: _54  and  _57
REMARK   22  A    between atoms: _57  and  _58
REMARK   23  A    between atoms: _63  and  _65
REMARK   24  A    between atoms: _65  and  _66
REMARK   25  A    between atoms: _65  and  _68
REMARK   26  A    between atoms: _71  and  _73
REMARK   27  A    between atoms: _73  and  _74
REMARK   28  A    between atoms: _73  and  _76
REMARK   29  A    between atoms: _76  and  _77
REMARK   30  A    between atoms: _87  and  _89
REMARK   31  A    between atoms: _89  and  _90
REMARK   32  A    between atoms: _92  and  _94
REMARK   33  A    between atoms: _94  and  _95
REMARK   34  A    between atoms: _94  and  _97
REMARK   35  A    between atoms: _97  and  _98
REMARK   36  A    between atoms: _101  and  _103
REMARK   37  A    between atoms: _103  and  _104
REMARK   38  A    between atoms: _103  and  _106
REMARK   39  A    between atoms: _106  and  _107
REMARK   40  A    between atoms: _110  and  _112
REMARK   41  A    between atoms: _112  and  _113
REMARK   42  A    between atoms: _112  and  _115
REMARK   43  A    between atoms: _115  and  _116
REMARK   44  A    between atoms: _116  and  _117
REMARK   45  A    between atoms: _120  and  _122
REMARK   46  A    between atoms: _122  and  _123
REMARK   47  A    between atoms: _122  and  _125
REMARK   48  A    between atoms: _125  and  _126
REMARK   49  A    between atoms: _128  and  _130
REMARK   50  A    between atoms: _130  and  _131
REMARK   51  A    between atoms: _130  and  _133
REMARK   52  A    between atoms: _133  and  _134
REMARK   53  A    between atoms: _139  and  _141
REMARK   54  A    between atoms: _141  and  _142
REMARK   55  A    between atoms: _145  and  _147
REMARK   56  A    between atoms: _147  and  _148
REMARK   57  A    between atoms: _147  and  _150
REMARK   58  A    between atoms: _150  and  _151
REMARK   59  A    between atoms: _154  and  _156
REMARK   60  A    between atoms: _156  and  _157
REMARK   61  A    between atoms: _156  and  _159
REMARK   62  A    between atoms: _159  and  _160
REMARK   63  A    between atoms: _162  and  _164
REMARK   64  A    between atoms: _164  and  _165
REMARK   65  A    between atoms: _164  and  _167
REMARK   66  A    between atoms: _167  and  _168
REMARK   67  A    between atoms: _178  and  _180
REMARK   68  A    between atoms: _180  and  _181
REMARK   69  A    between atoms: _180  and  _183
REMARK   70  A    between atoms: _183  and  _184
REMARK   71  A    between atoms: _187  and  _189
REMARK   72  A    between atoms: _189  and  _190
REMARK   73  A    between atoms: _189  and  _192
REMARK   74  A    between atoms: _192  and  _193
REMARK   75  A    between atoms: _196  and  _198
REMARK   76  A    between atoms: _198  and  _199
REMARK   77  A    between atoms: _198  and  _201
REMARK   78  A    between atoms: _201  and  _202
REMARK   79  A    between atoms: _205  and  _207
REMARK   80  A    between atoms: _207  and  _208
REMARK   81  A    between atoms: _207  and  _210
REMARK   82  A    between atoms: _210  and  _211
REMARK   83  A    between atoms: _211  and  _212
REMARK   84  A    between atoms: _212  and  _213
REMARK   85  A    between atoms: _222  and  _224
REMARK   86  A    between atoms: _224  and  _225
REMARK   87  A    between atoms: _224  and  _227
REMARK   88  A    between atoms: _230  and  _232
REMARK   89  A    between atoms: _232  and  _233
REMARK   90  A    between atoms: _232  and  _235
REMARK   91  A    between atoms: _235  and  _236
REMARK   92  A    between atoms: _239  and  _241
REMARK   93  A    between atoms: _241  and  _242
REMARK   94  A    between atoms: _241  and  _244
REMARK   95  A    between atoms: _244  and  _245
REMARK   96  A    between atoms: _251  and  _253
REMARK   97  A    between atoms: _253  and  _254
REMARK   98  A    between atoms: _253  and  _256
REMARK   99  A    between atoms: _256  and  _257
REMARK  100  A    between atoms: _259  and  _261
REMARK  101  A    between atoms: _261  and  _262
REMARK  102  A    between atoms: _261  and  _264
REMARK  103  A    between atoms: _264  and  _265
REMARK  104  A    between atoms: _271  and  _273
REMARK  105  A    between atoms: _273  and  _274
REMARK  106  A    between atoms: _273  and  _276
REMARK  107  A    between atoms: _276  and  _277
REMARK  108  A    between atoms: _280  and  _282
REMARK  109  A    between atoms: _282  and  _283
REMARK  110  A    between atoms: _282  and  _285
REMARK  111  A    between atoms: _285  and  _286
REMARK  112  A    between atoms: _286  and  _287
REMARK  113  A    between atoms: _290  and  _292
REMARK  114  A    between atoms: _292  and  _293
REMARK  115  A    between atoms: _296  and  _298
REMARK  116  A    between atoms: _298  and  _299
REMARK                            x       y       z     vdW  Elec       q    Type
REMARK                         _______ _______ _______ _____ _____    ______ ____
ROOT
ATOM      1  O   HOH     1      30.952 -22.481  -3.777  0.00  0.00    +0.000 OA
ENDROOT
TORSDOF 0
REMARK  Name = ../refined-set-2016/4ai5/4ai5_pocket.pdb
REMARK  116 active torsions:
REMARK  status: ('A' for Active; 'I' for Inactive)
REMARK    1  A    between atoms: _1  and  _3
REMARK    2  A    between atoms: _3  and  _4
REMARK    3  A    between atoms: _3  and  _6
REMARK    4  A    between atoms: _8  and  _10
REMARK    5  A    between atoms: _10  and  _11
REMARK    6  A    between atoms: _14  and  _16
REMARK    7  A    between atoms: _16  and  _17
REMARK    8  A    between atoms: _16  and  _19
REMARK    9  A    between atoms: _19  and  _20
REMARK   10  A    between atoms: _26  and  _28
REMARK   11  A    between atoms: _28  and  _29
REMARK   12  A    between atoms: _28  and  _31
REMARK   13  A    between atoms: _31  and  _32
REMARK   14  A    between atoms: _37  and  _38
REMARK   15  A    between atoms: _40  and  _42
REMARK   16  A    between atoms: _42  and  _43
REMARK   17  A    between atoms: _42  and  _45
REMARK   18  A    between atoms: _45  and  _46
REMARK   19  A    between atoms: _52  and  _54
REMARK   20  A    between atoms: _54  and  _55
REMARK   21  A    between atoms: _54  and  _57
REMARK   22  A    between atoms: _57  and  _58
REMARK   23  A    between atoms: _63  and  _65
REMARK   24  A    between atoms: _65  and  _66
REMARK   25  A    between atoms: _65  and  _68
REMARK   26  A    between atoms: _71  and  _73
REMARK   27  A    between atoms: _73  and  _74
REMARK   28  A    between atoms: _73  and  _76
REMARK   29  A    between atoms: _76  and  _77
REMARK   30  A    between atoms: _87  and  _89
REMARK   31  A    between atoms: _89  and  _90
REMARK   32  A    between atoms: _92  and  _94
REMARK   33  A    between atoms: _94  and  _95
REMARK   34  A    between atoms: _94  and  _97
REMARK   35  A    between atoms: _97  and  _98
REMARK   36  A    between atoms: _101  and  _103
REMARK   37  A    between atoms: _103  and  _104
REMARK   38  A    between atoms: _103  and  _106
REMARK   39  A    between atoms: _106  and  _107
REMARK   40  A    between atoms: _110  and  _112
REMARK   41  A    between atoms: _112  and  _113
REMARK   42  A    between atoms: _112  and  _115
REMARK   43  A    between atoms: _115  and  _116
REMARK   44  A    between atoms: _116  and  _117
REMARK   45  A    between atoms: _120  and  _122
REMARK   46  A    between atoms: _122  and  _123
REMARK   47  A    between atoms: _122  and  _125
REMARK   48  A    between atoms: _125  and  _126
REMARK   49  A    between atoms: _128  and  _130
REMARK   50  A    between atoms: _130  and  _131
REMARK   51  A    between atoms: _130  and  _133
REMARK   52  A    between atoms: _133  and  _134
REMARK   53  A    between atoms: _139  and  _141
REMARK   54  A    between atoms: _141  and  _142
REMARK   55  A    between atoms: _145  and  _147
REMARK   56  A    between atoms: _147  and  _148
REMARK   57  A    between atoms: _147  and  _150
REMARK   58  A    between atoms: _150  and  _151
REMARK   59  A    between atoms: _154  and  _156
REMARK   60  A    between atoms: _156  and  _157
REMARK   61  A    between atoms: _156  and  _159
REMARK   62  A    between atoms: _159  and  _160
REMARK   63  A    between atoms: _162  and  _164
REMARK   64  A    between atoms: _164  and  _165
REMARK   65  A    between atoms: _164  and  _167
REMARK   66  A    between atoms: _167  and  _168
REMARK   67  A    between atoms: _178  and  _180
REMARK   68  A    between atoms: _180  and  _181
REMARK   69  A    between atoms: _180  and  _183
REMARK   70  A    between atoms: _183  and  _184
REMARK   71  A    between atoms: _187  and  _189
REMARK   72  A    between atoms: _189  and  _190
REMARK   73  A    between atoms: _189  and  _192
REMARK   74  A    between atoms: _192  and  _193
REMARK   75  A    between atoms: _196  and  _198
REMARK   76  A    between atoms: _198  and  _199
REMARK   77  A    between atoms: _198  and  _201
REMARK   78  A    between atoms: _201  and  _202
REMARK   79  A    between atoms: _205  and  _207
REMARK   80  A    between atoms: _207  and  _208
REMARK   81  A    between atoms: _207  and  _210
REMARK   82  A    between atoms: _210  and  _211
REMARK   83  A    between atoms: _211  and  _212
REMARK   84  A    between atoms: _212  and  _213
REMARK   85  A    between atoms: _222  and  _224
REMARK   86  A    between atoms: _224  and  _225
REMARK   87  A    between atoms: _224  and  _227
REMARK   88  A    between atoms: _230  and  _232
REMARK   89  A    between atoms: _232  and  _233
REMARK   90  A    between atoms: _232  and  _235
REMARK   91  A    between atoms: _235  and  _236
REMARK   92  A    between atoms: _239  and  _241
REMARK   93  A    between atoms: _241  and  _242
REMARK   94  A    between atoms: _241  and  _244
REMARK   95  A    between atoms: _244  and  _245
REMARK   96  A    between atoms: _251  and  _253
REMARK   97  A    between atoms: _253  and  _254
REMARK   98  A    between atoms: _253  and  _256
REMARK   99  A    between atoms: _256  and  _257
REMARK  100  A    between atoms: _259  and  _261
REMARK  101  A    between atoms: _261  and  _262
REMARK  102  A    between atoms: _261  and  _264
REMARK  103  A    between atoms: _264  and  _265
REMARK  104  A    between atoms: _271  and  _273
REMARK  105  A    between atoms: _273  and  _274
REMARK  106  A    between atoms: _273  and  _276
REMARK  107  A    between atoms: _276  and  _277
REMARK  108  A    between atoms: _280  and  _282
REMARK  109  A    between atoms: _282  and  _283
REMARK  110  A    between atoms: _282  and  _285
REMARK  111  A    between atoms: _285  and  _286
REMARK  112  A    between atoms: _286  and  _287
REMARK  113  A    between atoms: _290  and  _292
REMARK  114  A    between atoms: _292  and  _293
REMARK  115  A    between atoms: _296  and  _298
REMARK  116  A    between atoms: _298  and  _299
REMARK                            x       y       z     vdW  Elec       q    Type
REMARK                         _______ _______ _______ _____ _____    ______ ____
ROOT
ATOM      1  O   HOH     1      33.962 -12.219   2.820  0.00  0.00    +0.000 OA
ENDROOT
TORSDOF 0
