REMARK  Name = ../refined-set-2016/4o05/4o05_pocket.pdb
REMARK  249 active torsions:
REMARK  status: ('A' for Active; 'I' for Inactive)
REMARK    1  A    between atoms: _1  and  _3
REMARK    2  A    between atoms: _3  and  _4
REMARK    3  A    between atoms: _3  and  _6
REMARK    4  A    between atoms: _6  and  _7
REMARK    5  A    between atoms: _13  and  _15
REMARK    6  A    between atoms: _15  and  _16
REMARK    7  A    between atoms: _15  and  _18
REMARK    8  A    between atoms: _18  and  _19
REMARK    9  A    between atoms: _19  and  _20
REMARK   10  A    between atoms: _25  and  _27
REMARK   11  A    between atoms: _27  and  _28
REMARK   12  A    between atoms: _27  and  _30
REMARK   13  A    between atoms: _30  and  _31
REMARK   14  A    between atoms: _34  and  _36
REMARK   15  A    between atoms: _36  and  _37
REMARK   16  A    between atoms: _36  and  _39
REMARK   17  A    between atoms: _39  and  _40
REMARK   18  A    between atoms: _40  and  _41
REMARK   19  A    between atoms: _44  and  _46
REMARK   20  A    between atoms: _46  and  _47
REMARK   21  A    between atoms: _46  and  _49
REMARK   22  A    between atoms: _49  and  _50
REMARK   23  A    between atoms: _53  and  _55
REMARK   24  A    between atoms: _55  and  _56
REMARK   25  A    between atoms: _55  and  _58
REMARK   26  A    between atoms: _58  and  _59
REMARK   27  A    between atoms: _62  and  _64
REMARK   28  A    between atoms: _64  and  _65
REMARK   29  A    between atoms: _64  and  _67
REMARK   30  A    between atoms: _67  and  _68
REMARK   31  A    between atoms: _70  and  _72
REMARK   32  A    between atoms: _72  and  _73
REMARK   33  A    between atoms: _72  and  _75
REMARK   34  A    between atoms: _75  and  _76
REMARK   35  A    between atoms: _81  and  _83
REMARK   36  A    between atoms: _83  and  _84
REMARK   37  A    between atoms: _83  and  _86
REMARK   38  A    between atoms: _86  and  _87
REMARK   39  A    between atoms: _89  and  _91
REMARK   40  A    between atoms: _91  and  _92
REMARK   41  A    between atoms: _91  and  _94
REMARK   42  A    between atoms: _94  and  _95
REMARK   43  A    between atoms: _97  and  _99
REMARK   44  A    between atoms: _99  and  _100
REMARK   45  A    between atoms: _99  and  _102
REMARK   46  A    between atoms: _102  and  _103
REMARK   47  A    between atoms: _106  and  _108
REMARK   48  A    between atoms: _108  and  _109
REMARK   49  A    between atoms: _112  and  _114
REMARK   50  A    between atoms: _114  and  _115
REMARK   51  A    between atoms: _114  and  _117
REMARK   52  A    between atoms: _117  and  _118
REMARK   53  A    between atoms: _121  and  _123
REMARK   54  A    between atoms: _123  and  _124
REMARK   55  A    between atoms: _123  and  _126
REMARK   56  A    between atoms: _126  and  _127
REMARK   57  A    between atoms: _127  and  _128
REMARK   58  A    between atoms: _128  and  _129
REMARK   59  A    between atoms: _129  and  _130
REMARK   60  A    between atoms: _134  and  _136
REMARK   61  A    between atoms: _136  and  _137
REMARK   62  A    between atoms: _136  and  _139
REMARK   63  A    between atoms: _139  and  _140
REMARK   64  A    between atoms: _143  and  _145
REMARK   65  A    between atoms: _145  and  _146
REMARK   66  A    between atoms: _145  and  _148
REMARK   67  A    between atoms: _148  and  _149
REMARK   68  A    between atoms: _152  and  _154
REMARK   69  A    between atoms: _154  and  _155
REMARK   70  A    between atoms: _154  and  _157
REMARK   71  A    between atoms: _160  and  _162
REMARK   72  A    between atoms: _162  and  _163
REMARK   73  A    between atoms: _162  and  _165
REMARK   74  A    between atoms: _165  and  _166
REMARK   75  A    between atoms: _169  and  _171
REMARK   76  A    between atoms: _171  and  _172
REMARK   77  A    between atoms: _171  and  _174
REMARK   78  A    between atoms: _174  and  _175
REMARK   79  A    between atoms: _178  and  _180
REMARK   80  A    between atoms: _180  and  _181
REMARK   81  A    between atoms: _183  and  _185
REMARK   82  A    between atoms: _185  and  _186
REMARK   83  A    between atoms: _185  and  _188
REMARK   84  A    between atoms: _188  and  _189
REMARK   85  A    between atoms: _192  and  _194
REMARK   86  A    between atoms: _194  and  _195
REMARK   87  A    between atoms: _197  and  _199
REMARK   88  A    between atoms: _199  and  _200
REMARK   89  A    between atoms: _199  and  _202
REMARK   90  A    between atoms: _202  and  _203
REMARK   91  A    between atoms: _203  and  _204
REMARK   92  A    between atoms: _206  and  _208
REMARK   93  A    between atoms: _208  and  _209
REMARK   94  A    between atoms: _208  and  _211
REMARK   95  A    between atoms: _211  and  _212
REMARK   96  A    between atoms: _215  and  _217
REMARK   97  A    between atoms: _217  and  _218
REMARK   98  A    between atoms: _217  and  _220
REMARK   99  A    between atoms: _220  and  _221
REMARK  100  A    between atoms: _221  and  _222
REMARK  101  A    between atoms: _222  and  _223
REMARK  102  A    between atoms: _223  and  _224
REMARK  103  A    between atoms: _228  and  _230
REMARK  104  A    between atoms: _230  and  _231
REMARK  105  A    between atoms: _234  and  _236
REMARK  106  A    between atoms: _236  and  _237
REMARK  107  A    between atoms: _236  and  _239
REMARK  108  A    between atoms: _239  and  _240
REMARK  109  A    between atoms: _243  and  _245
REMARK  110  A    between atoms: _245  and  _246
REMARK  111  A    between atoms: _245  and  _248
REMARK  112  A    between atoms: _248  and  _249
REMARK  113  A    between atoms: _252  and  _254
REMARK  114  A    between atoms: _254  and  _255
REMARK  115  A    between atoms: _254  and  _257
REMARK  116  A    between atoms: _257  and  _258
REMARK  117  A    between atoms: _261  and  _263
REMARK  118  A    between atoms: _263  and  _264
REMARK  119  A    between atoms: _263  and  _266
REMARK  120  A    between atoms: _266  and  _267
REMARK  121  A    between atoms: _272  and  _274
REMARK  122  A    between atoms: _274  and  _275
REMARK  123  A    between atoms: _274  and  _277
REMARK  124  A    between atoms: _277  and  _278
REMARK  125  A    between atoms: _283  and  _285
REMARK  126  A    between atoms: _285  and  _286
REMARK  127  A    between atoms: _285  and  _288
REMARK  128  A    between atoms: _288  and  _289
REMARK  129  A    between atoms: _292  and  _294
REMARK  130  A    between atoms: _294  and  _295
REMARK  131  A    between atoms: _297  and  _299
REMARK  132  A    between atoms: _299  and  _300
REMARK  133  A    between atoms: _299  and  _302
REMARK  134  A    between atoms: _302  and  _303
REMARK  135  A    between atoms: _306  and  _308
REMARK  136  A    between atoms: _308  and  _309
REMARK  137  A    between atoms: _308  and  _311
REMARK  138  A    between atoms: _311  and  _312
REMARK  139  A    between atoms: _315  and  _317
REMARK  140  A    between atoms: _317  and  _318
REMARK  141  A    between atoms: _321  and  _323
REMARK  142  A    between atoms: _323  and  _324
REMARK  143  A    between atoms: _323  and  _326
REMARK  144  A    between atoms: _326  and  _327
REMARK  145  A    between atoms: _327  and  _328
REMARK  146  A    between atoms: _328  and  _329
REMARK  147  A    between atoms: _329  and  _330
REMARK  148  A    between atoms: _334  and  _336
REMARK  149  A    between atoms: _336  and  _337
REMARK  150  A    between atoms: _339  and  _341
REMARK  151  A    between atoms: _341  and  _342
REMARK  152  A    between atoms: _341  and  _344
REMARK  153  A    between atoms: _344  and  _345
REMARK  154  A    between atoms: _348  and  _350
REMARK  155  A    between atoms: _350  and  _351
REMARK  156  A    between atoms: _353  and  _355
REMARK  157  A    between atoms: _355  and  _356
REMARK  158  A    between atoms: _355  and  _358
REMARK  159  A    between atoms: _358  and  _359
REMARK  160  A    between atoms: _365  and  _367
REMARK  161  A    between atoms: _367  and  _368
REMARK  162  A    between atoms: _370  and  _372
REMARK  163  A    between atoms: _372  and  _373
REMARK  164  A    between atoms: _372  and  _375
REMARK  165  A    between atoms: _378  and  _380
REMARK  166  A    between atoms: _380  and  _381
REMARK  167  A    between atoms: _383  and  _385
REMARK  168  A    between atoms: _385  and  _386
REMARK  169  A    between atoms: _385  and  _388
REMARK  170  A    between atoms: _388  and  _389
REMARK  171  A    between atoms: _395  and  _397
REMARK  172  A    between atoms: _397  and  _398
REMARK  173  A    between atoms: _397  and  _400
REMARK  174  A    between atoms: _400  and  _401
REMARK  175  A    between atoms: _406  and  _407
REMARK  176  A    between atoms: _409  and  _411
REMARK  177  A    between atoms: _411  and  _412
REMARK  178  A    between atoms: _411  and  _414
REMARK  179  A    between atoms: _414  and  _415
REMARK  180  A    between atoms: _420  and  _421
REMARK  181  A    between atoms: _423  and  _425
REMARK  182  A    between atoms: _425  and  _426
REMARK  183  A    between atoms: _425  and  _428
REMARK  184  A    between atoms: _431  and  _433
REMARK  185  A    between atoms: _433  and  _434
REMARK  186  A    between atoms: _433  and  _436
REMARK  187  A    between atoms: _436  and  _437
REMARK  188  A    between atoms: _440  and  _442
REMARK  189  A    between atoms: _442  and  _443
REMARK  190  A    between atoms: _442  and  _445
REMARK  191  A    between atoms: _448  and  _450
REMARK  192  A    between atoms: _450  and  _451
REMARK  193  A    between atoms: _450  and  _453
REMARK  194  A    between atoms: _453  and  _454
REMARK  195  A    between atoms: _457  and  _459
REMARK  196  A    between atoms: _459  and  _460
REMARK  197  A    between atoms: _459  and  _462
REMARK  198  A    between atoms: _462  and  _463
REMARK  199  A    between atoms: _466  and  _468
REMARK  200  A    between atoms: _468  and  _469
REMARK  201  A    between atoms: _468  and  _471
REMARK  202  A    between atoms: _471  and  _472
REMARK  203  A    between atoms: _472  and  _473
REMARK  204  A    between atoms: _473  and  _474
REMARK  205  A    between atoms: _474  and  _475
REMARK  206  A    between atoms: _479  and  _481
REMARK  207  A    between atoms: _481  and  _482
REMARK  208  A    between atoms: _481  and  _484
REMARK  209  A    between atoms: _484  and  _485
REMARK  210  A    between atoms: _490  and  _492
REMARK  211  A    between atoms: _492  and  _493
REMARK  212  A    between atoms: _492  and  _495
REMARK  213  A    between atoms: _495  and  _496
REMARK  214  A    between atoms: _506  and  _508
REMARK  215  A    between atoms: _508  and  _509
REMARK  216  A    between atoms: _508  and  _511
REMARK  217  A    between atoms: _511  and  _512
REMARK  218  A    between atoms: _512  and  _513
REMARK  219  A    between atoms: _516  and  _518
REMARK  220  A    between atoms: _518  and  _519
REMARK  221  A    between atoms: _518  and  _521
REMARK  222  A    between atoms: _521  and  _522
REMARK  223  A    between atoms: _524  and  _526
REMARK  224  A    between atoms: _526  and  _527
REMARK  225  A    between atoms: _526  and  _529
REMARK  226  A    between atoms: _529  and  _530
REMARK  227  A    between atoms: _536  and  _538
REMARK  228  A    between atoms: _538  and  _539
REMARK  229  A    between atoms: _538  and  _541
REMARK  230  A    between atoms: _541  and  _542
REMARK  231  A    between atoms: _545  and  _547
REMARK  232  A    between atoms: _547  and  _548
REMARK  233  A    between atoms: _547  and  _550
REMARK  234  A    between atoms: _553  and  _555
REMARK  235  A    between atoms: _555  and  _556
REMARK  236  A    between atoms: _558  and  _560
REMARK  237  A    between atoms: _560  and  _561
REMARK  238  A    between atoms: _560  and  _563
REMARK  239  A    between atoms: _563  and  _564
REMARK  240  A    between atoms: _567  and  _569
REMARK  241  A    between atoms: _569  and  _570
REMARK  242  A    between atoms: _569  and  _572
REMARK  243  A    between atoms: _572  and  _573
REMARK  244  A    between atoms: _573  and  _574
REMARK  245  A    between atoms: _574  and  _575
REMARK  246  A    between atoms: _575  and  _576
REMARK  247  A    between atoms: _580  and  _582
REMARK  248  A    between atoms: _582  and  _583
REMARK  249  A    between atoms: _582  and  _585
REMARK                            x       y       z     vdW  Elec       q    Type
REMARK                         _______ _______ _______ _____ _____    ______ ____
ROOT
ATOM      1  C   PHE A   1      17.830 -15.379 -24.787  0.00  0.00    +0.239 C 
ATOM      2  O   PHE A   1      18.995 -15.798 -24.684  0.00  0.00    -0.274 OA
ATOM      3  N   GLN A   2      17.509 -14.069 -24.785  0.00  0.00    -0.298 N 
ATOM      4  H   GLN A   2      16.510 -13.808 -24.913  0.00  0.00    +0.150 HD
ENDROOT
BRANCH   1   5
ATOM      5  CA  PHE A   1      16.686 -16.379 -24.866  0.00  0.00    +0.149 C 
BRANCH   5   6
ATOM      6  N   PHE A   1      17.261 -17.627 -25.380  0.00  0.00    -0.238 NA
ATOM      7  H   PHE A   1      17.380 -18.436 -24.738  0.00  0.00    +0.142 HD
ENDBRANCH   5   6
BRANCH   5   8
ATOM      8  CB  PHE A   1      16.181 -16.559 -23.424  0.00  0.00    +0.053 C 
BRANCH   8   9
ATOM      9  CG  PHE A   1      14.820 -17.173 -23.297  0.00  0.00    -0.020 A 
ATOM     10  CD2 PHE A   1      14.672 -18.480 -22.840  0.00  0.00    -0.004 A 
ATOM     11  CE2 PHE A   1      13.397 -19.051 -22.712  0.00  0.00    -0.000 A 
ATOM     12  CZ  PHE A   1      12.265 -18.309 -23.032  0.00  0.00    -0.000 A 
ATOM     13  CE1 PHE A   1      12.396 -17.004 -23.475  0.00  0.00    -0.000 A 
ATOM     14  CD1 PHE A   1      13.671 -16.435 -23.603  0.00  0.00    -0.004 A 
ENDBRANCH   8   9
ENDBRANCH   5   8
ENDBRANCH   1   5
BRANCH   3  15
ATOM     15  CA  GLN A   2      18.494 -12.986 -24.612  0.00  0.00    +0.137 C 
BRANCH  15  16
ATOM     16  C   GLN A   2      19.087 -13.266 -23.218  0.00  0.00    +0.227 C 
ATOM     17  O   GLN A   2      18.327 -13.661 -22.318  0.00  0.00    -0.286 OA
ENDBRANCH  15  16
BRANCH  15  18
ATOM     18  CB  GLN A   2      17.787 -11.618 -24.624  0.00  0.00    +0.037 C 
BRANCH  18  19
ATOM     19  CG  GLN A   2      17.338 -11.144 -26.016  0.00  0.00    +0.087 C 
BRANCH  19  20
ATOM     20  CD  GLN A   2      18.295 -10.172 -26.677  0.00  0.00    +0.219 C 
ATOM     21  OE1 GLN A   2      19.527 -10.290 -26.601  0.00  0.00    -0.275 OA
ATOM     22  NE2 GLN A   2      17.738  -9.190 -27.370  0.00  0.00    -0.329 N 
ATOM     23 HE21 GLN A   2      16.702  -9.111 -27.420  0.00  0.00    +0.145 HD
ATOM     24 HE22 GLN A   2      18.337  -8.498 -27.865  0.00  0.00    +0.145 HD
ENDBRANCH  19  20
ENDBRANCH  18  19
ENDBRANCH  15  18
ENDBRANCH   3  15
TORSDOF 9
REMARK  Name = ../refined-set-2016/4o05/4o05_pocket.pdb
REMARK  249 active torsions:
REMARK  status: ('A' for Active; 'I' for Inactive)
REMARK    1  A    between atoms: _1  and  _3
REMARK    2  A    between atoms: _3  and  _4
REMARK    3  A    between atoms: _3  and  _6
REMARK    4  A    between atoms: _6  and  _7
REMARK    5  A    between atoms: _13  and  _15
REMARK    6  A    between atoms: _15  and  _16
REMARK    7  A    between atoms: _15  and  _18
REMARK    8  A    between atoms: _18  and  _19
REMARK    9  A    between atoms: _19  and  _20
REMARK   10  A    between atoms: _25  and  _27
REMARK   11  A    between atoms: _27  and  _28
REMARK   12  A    between atoms: _27  and  _30
REMARK   13  A    between atoms: _30  and  _31
REMARK   14  A    between atoms: _34  and  _36
REMARK   15  A    between atoms: _36  and  _37
REMARK   16  A    between atoms: _36  and  _39
REMARK   17  A    between atoms: _39  and  _40
REMARK   18  A    between atoms: _40  and  _41
REMARK   19  A    between atoms: _44  and  _46
REMARK   20  A    between atoms: _46  and  _47
REMARK   21  A    between atoms: _46  and  _49
REMARK   22  A    between atoms: _49  and  _50
REMARK   23  A    between atoms: _53  and  _55
REMARK   24  A    between atoms: _55  and  _56
REMARK   25  A    between atoms: _55  and  _58
REMARK   26  A    between atoms: _58  and  _59
REMARK   27  A    between atoms: _62  and  _64
REMARK   28  A    between atoms: _64  and  _65
REMARK   29  A    between atoms: _64  and  _67
REMARK   30  A    between atoms: _67  and  _68
REMARK   31  A    between atoms: _70  and  _72
REMARK   32  A    between atoms: _72  and  _73
REMARK   33  A    between atoms: _72  and  _75
REMARK   34  A    between atoms: _75  and  _76
REMARK   35  A    between atoms: _81  and  _83
REMARK   36  A    between atoms: _83  and  _84
REMARK   37  A    between atoms: _83  and  _86
REMARK   38  A    between atoms: _86  and  _87
REMARK   39  A    between atoms: _89  and  _91
REMARK   40  A    between atoms: _91  and  _92
REMARK   41  A    between atoms: _91  and  _94
REMARK   42  A    between atoms: _94  and  _95
REMARK   43  A    between atoms: _97  and  _99
REMARK   44  A    between atoms: _99  and  _100
REMARK   45  A    between atoms: _99  and  _102
REMARK   46  A    between atoms: _102  and  _103
REMARK   47  A    between atoms: _106  and  _108
REMARK   48  A    between atoms: _108  and  _109
REMARK   49  A    between atoms: _112  and  _114
REMARK   50  A    between atoms: _114  and  _115
REMARK   51  A    between atoms: _114  and  _117
REMARK   52  A    between atoms: _117  and  _118
REMARK   53  A    between atoms: _121  and  _123
REMARK   54  A    between atoms: _123  and  _124
REMARK   55  A    between atoms: _123  and  _126
REMARK   56  A    between atoms: _126  and  _127
REMARK   57  A    between atoms: _127  and  _128
REMARK   58  A    between atoms: _128  and  _129
REMARK   59  A    between atoms: _129  and  _130
REMARK   60  A    between atoms: _134  and  _136
REMARK   61  A    between atoms: _136  and  _137
REMARK   62  A    between atoms: _136  and  _139
REMARK   63  A    between atoms: _139  and  _140
REMARK   64  A    between atoms: _143  and  _145
REMARK   65  A    between atoms: _145  and  _146
REMARK   66  A    between atoms: _145  and  _148
REMARK   67  A    between atoms: _148  and  _149
REMARK   68  A    between atoms: _152  and  _154
REMARK   69  A    between atoms: _154  and  _155
REMARK   70  A    between atoms: _154  and  _157
REMARK   71  A    between atoms: _160  and  _162
REMARK   72  A    between atoms: _162  and  _163
REMARK   73  A    between atoms: _162  and  _165
REMARK   74  A    between atoms: _165  and  _166
REMARK   75  A    between atoms: _169  and  _171
REMARK   76  A    between atoms: _171  and  _172
REMARK   77  A    between atoms: _171  and  _174
REMARK   78  A    between atoms: _174  and  _175
REMARK   79  A    between atoms: _178  and  _180
REMARK   80  A    between atoms: _180  and  _181
REMARK   81  A    between atoms: _183  and  _185
REMARK   82  A    between atoms: _185  and  _186
REMARK   83  A    between atoms: _185  and  _188
REMARK   84  A    between atoms: _188  and  _189
REMARK   85  A    between atoms: _192  and  _194
REMARK   86  A    between atoms: _194  and  _195
REMARK   87  A    between atoms: _197  and  _199
REMARK   88  A    between atoms: _199  and  _200
REMARK   89  A    between atoms: _199  and  _202
REMARK   90  A    between atoms: _202  and  _203
REMARK   91  A    between atoms: _203  and  _204
REMARK   92  A    between atoms: _206  and  _208
REMARK   93  A    between atoms: _208  and  _209
REMARK   94  A    between atoms: _208  and  _211
REMARK   95  A    between atoms: _211  and  _212
REMARK   96  A    between atoms: _215  and  _217
REMARK   97  A    between atoms: _217  and  _218
REMARK   98  A    between atoms: _217  and  _220
REMARK   99  A    between atoms: _220  and  _221
REMARK  100  A    between atoms: _221  and  _222
REMARK  101  A    between atoms: _222  and  _223
REMARK  102  A    between atoms: _223  and  _224
REMARK  103  A    between atoms: _228  and  _230
REMARK  104  A    between atoms: _230  and  _231
REMARK  105  A    between atoms: _234  and  _236
REMARK  106  A    between atoms: _236  and  _237
REMARK  107  A    between atoms: _236  and  _239
REMARK  108  A    between atoms: _239  and  _240
REMARK  109  A    between atoms: _243  and  _245
REMARK  110  A    between atoms: _245  and  _246
REMARK  111  A    between atoms: _245  and  _248
REMARK  112  A    between atoms: _248  and  _249
REMARK  113  A    between atoms: _252  and  _254
REMARK  114  A    between atoms: _254  and  _255
REMARK  115  A    between atoms: _254  and  _257
REMARK  116  A    between atoms: _257  and  _258
REMARK  117  A    between atoms: _261  and  _263
REMARK  118  A    between atoms: _263  and  _264
REMARK  119  A    between atoms: _263  and  _266
REMARK  120  A    between atoms: _266  and  _267
REMARK  121  A    between atoms: _272  and  _274
REMARK  122  A    between atoms: _274  and  _275
REMARK  123  A    between atoms: _274  and  _277
REMARK  124  A    between atoms: _277  and  _278
REMARK  125  A    between atoms: _283  and  _285
REMARK  126  A    between atoms: _285  and  _286
REMARK  127  A    between atoms: _285  and  _288
REMARK  128  A    between atoms: _288  and  _289
REMARK  129  A    between atoms: _292  and  _294
REMARK  130  A    between atoms: _294  and  _295
REMARK  131  A    between atoms: _297  and  _299
REMARK  132  A    between atoms: _299  and  _300
REMARK  133  A    between atoms: _299  and  _302
REMARK  134  A    between atoms: _302  and  _303
REMARK  135  A    between atoms: _306  and  _308
REMARK  136  A    between atoms: _308  and  _309
REMARK  137  A    between atoms: _308  and  _311
REMARK  138  A    between atoms: _311  and  _312
REMARK  139  A    between atoms: _315  and  _317
REMARK  140  A    between atoms: _317  and  _318
REMARK  141  A    between atoms: _321  and  _323
REMARK  142  A    between atoms: _323  and  _324
REMARK  143  A    between atoms: _323  and  _326
REMARK  144  A    between atoms: _326  and  _327
REMARK  145  A    between atoms: _327  and  _328
REMARK  146  A    between atoms: _328  and  _329
REMARK  147  A    between atoms: _329  and  _330
REMARK  148  A    between atoms: _334  and  _336
REMARK  149  A    between atoms: _336  and  _337
REMARK  150  A    between atoms: _339  and  _341
REMARK  151  A    between atoms: _341  and  _342
REMARK  152  A    between atoms: _341  and  _344
REMARK  153  A    between atoms: _344  and  _345
REMARK  154  A    between atoms: _348  and  _350
REMARK  155  A    between atoms: _350  and  _351
REMARK  156  A    between atoms: _353  and  _355
REMARK  157  A    between atoms: _355  and  _356
REMARK  158  A    between atoms: _355  and  _358
REMARK  159  A    between atoms: _358  and  _359
REMARK  160  A    between atoms: _365  and  _367
REMARK  161  A    between atoms: _367  and  _368
REMARK  162  A    between atoms: _370  and  _372
REMARK  163  A    between atoms: _372  and  _373
REMARK  164  A    between atoms: _372  and  _375
REMARK  165  A    between atoms: _378  and  _380
REMARK  166  A    between atoms: _380  and  _381
REMARK  167  A    between atoms: _383  and  _385
REMARK  168  A    between atoms: _385  and  _386
REMARK  169  A    between atoms: _385  and  _388
REMARK  170  A    between atoms: _388  and  _389
REMARK  171  A    between atoms: _395  and  _397
REMARK  172  A    between atoms: _397  and  _398
REMARK  173  A    between atoms: _397  and  _400
REMARK  174  A    between atoms: _400  and  _401
REMARK  175  A    between atoms: _406  and  _407
REMARK  176  A    between atoms: _409  and  _411
REMARK  177  A    between atoms: _411  and  _412
REMARK  178  A    between atoms: _411  and  _414
REMARK  179  A    between atoms: _414  and  _415
REMARK  180  A    between atoms: _420  and  _421
REMARK  181  A    between atoms: _423  and  _425
REMARK  182  A    between atoms: _425  and  _426
REMARK  183  A    between atoms: _425  and  _428
REMARK  184  A    between atoms: _431  and  _433
REMARK  185  A    between atoms: _433  and  _434
REMARK  186  A    between atoms: _433  and  _436
REMARK  187  A    between atoms: _436  and  _437
REMARK  188  A    between atoms: _440  and  _442
REMARK  189  A    between atoms: _442  and  _443
REMARK  190  A    between atoms: _442  and  _445
REMARK  191  A    between atoms: _448  and  _450
REMARK  192  A    between atoms: _450  and  _451
REMARK  193  A    between atoms: _450  and  _453
REMARK  194  A    between atoms: _453  and  _454
REMARK  195  A    between atoms: _457  and  _459
REMARK  196  A    between atoms: _459  and  _460
REMARK  197  A    between atoms: _459  and  _462
REMARK  198  A    between atoms: _462  and  _463
REMARK  199  A    between atoms: _466  and  _468
REMARK  200  A    between atoms: _468  and  _469
REMARK  201  A    between atoms: _468  and  _471
REMARK  202  A    between atoms: _471  and  _472
REMARK  203  A    between atoms: _472  and  _473
REMARK  204  A    between atoms: _473  and  _474
REMARK  205  A    between atoms: _474  and  _475
REMARK  206  A    between atoms: _479  and  _481
REMARK  207  A    between atoms: _481  and  _482
REMARK  208  A    between atoms: _481  and  _484
REMARK  209  A    between atoms: _484  and  _485
REMARK  210  A    between atoms: _490  and  _492
REMARK  211  A    between atoms: _492  and  _493
REMARK  212  A    between atoms: _492  and  _495
REMARK  213  A    between atoms: _495  and  _496
REMARK  214  A    between atoms: _506  and  _508
REMARK  215  A    between atoms: _508  and  _509
REMARK  216  A    between atoms: _508  and  _511
REMARK  217  A    between atoms: _511  and  _512
REMARK  218  A    between atoms: _512  and  _513
REMARK  219  A    between atoms: _516  and  _518
REMARK  220  A    between atoms: _518  and  _519
REMARK  221  A    between atoms: _518  and  _521
REMARK  222  A    between atoms: _521  and  _522
REMARK  223  A    between atoms: _524  and  _526
REMARK  224  A    between atoms: _526  and  _527
REMARK  225  A    between atoms: _526  and  _529
REMARK  226  A    between atoms: _529  and  _530
REMARK  227  A    between atoms: _536  and  _538
REMARK  228  A    between atoms: _538  and  _539
REMARK  229  A    between atoms: _538  and  _541
REMARK  230  A    between atoms: _541  and  _542
REMARK  231  A    between atoms: _545  and  _547
REMARK  232  A    between atoms: _547  and  _548
REMARK  233  A    between atoms: _547  and  _550
REMARK  234  A    between atoms: _553  and  _555
REMARK  235  A    between atoms: _555  and  _556
REMARK  236  A    between atoms: _558  and  _560
REMARK  237  A    between atoms: _560  and  _561
REMARK  238  A    between atoms: _560  and  _563
REMARK  239  A    between atoms: _563  and  _564
REMARK  240  A    between atoms: _567  and  _569
REMARK  241  A    between atoms: _569  and  _570
REMARK  242  A    between atoms: _569  and  _572
REMARK  243  A    between atoms: _572  and  _573
REMARK  244  A    between atoms: _573  and  _574
REMARK  245  A    between atoms: _574  and  _575
REMARK  246  A    between atoms: _575  and  _576
REMARK  247  A    between atoms: _580  and  _582
REMARK  248  A    between atoms: _582  and  _583
REMARK  249  A    between atoms: _582  and  _585
REMARK                            x       y       z     vdW  Elec       q    Type
REMARK                         _______ _______ _______ _____ _____    ______ ____
ROOT
ATOM      1  CA  ILE A   1      15.901 -12.821 -20.000  0.00  0.00    +0.133 C 
ENDROOT
BRANCH   1   2
ATOM      2  N   ILE A   1      17.184 -12.105 -20.128  0.00  0.00    -0.239 NA
ATOM      3  H   ILE A   1      17.528 -11.922 -21.092  0.00  0.00    +0.142 HD
ENDBRANCH   1   2
BRANCH   1   4
ATOM      4  C   ILE A   1      16.133 -14.176 -19.317  0.00  0.00    +0.224 C 
ATOM      5  O   ILE A   1      15.392 -14.514 -18.390  0.00  0.00    -0.287 OA
ENDBRANCH   1   4
BRANCH   1   6
ATOM      6  CB  ILE A   1      15.158 -12.974 -21.374  0.00  0.00    +0.023 C 
ATOM      7  CG2 ILE A   1      13.770 -13.592 -21.215  0.00  0.00    +0.002 C 
BRANCH   6   8
ATOM      8  CG1 ILE A   1      15.094 -11.641 -22.209  0.00  0.00    +0.002 C 
ATOM      9  CD1 ILE A   1      14.472 -10.356 -21.630  0.00  0.00    +0.000 C 
ENDBRANCH   6   8
ENDBRANCH   1   6
TORSDOF 4
REMARK  Name = ../refined-set-2016/4o05/4o05_pocket.pdb
REMARK  249 active torsions:
REMARK  status: ('A' for Active; 'I' for Inactive)
REMARK    1  A    between atoms: _1  and  _3
REMARK    2  A    between atoms: _3  and  _4
REMARK    3  A    between atoms: _3  and  _6
REMARK    4  A    between atoms: _6  and  _7
REMARK    5  A    between atoms: _13  and  _15
REMARK    6  A    between atoms: _15  and  _16
REMARK    7  A    between atoms: _15  and  _18
REMARK    8  A    between atoms: _18  and  _19
REMARK    9  A    between atoms: _19  and  _20
REMARK   10  A    between atoms: _25  and  _27
REMARK   11  A    between atoms: _27  and  _28
REMARK   12  A    between atoms: _27  and  _30
REMARK   13  A    between atoms: _30  and  _31
REMARK   14  A    between atoms: _34  and  _36
REMARK   15  A    between atoms: _36  and  _37
REMARK   16  A    between atoms: _36  and  _39
REMARK   17  A    between atoms: _39  and  _40
REMARK   18  A    between atoms: _40  and  _41
REMARK   19  A    between atoms: _44  and  _46
REMARK   20  A    between atoms: _46  and  _47
REMARK   21  A    between atoms: _46  and  _49
REMARK   22  A    between atoms: _49  and  _50
REMARK   23  A    between atoms: _53  and  _55
REMARK   24  A    between atoms: _55  and  _56
REMARK   25  A    between atoms: _55  and  _58
REMARK   26  A    between atoms: _58  and  _59
REMARK   27  A    between atoms: _62  and  _64
REMARK   28  A    between atoms: _64  and  _65
REMARK   29  A    between atoms: _64  and  _67
REMARK   30  A    between atoms: _67  and  _68
REMARK   31  A    between atoms: _70  and  _72
REMARK   32  A    between atoms: _72  and  _73
REMARK   33  A    between atoms: _72  and  _75
REMARK   34  A    between atoms: _75  and  _76
REMARK   35  A    between atoms: _81  and  _83
REMARK   36  A    between atoms: _83  and  _84
REMARK   37  A    between atoms: _83  and  _86
REMARK   38  A    between atoms: _86  and  _87
REMARK   39  A    between atoms: _89  and  _91
REMARK   40  A    between atoms: _91  and  _92
REMARK   41  A    between atoms: _91  and  _94
REMARK   42  A    between atoms: _94  and  _95
REMARK   43  A    between atoms: _97  and  _99
REMARK   44  A    between atoms: _99  and  _100
REMARK   45  A    between atoms: _99  and  _102
REMARK   46  A    between atoms: _102  and  _103
REMARK   47  A    between atoms: _106  and  _108
REMARK   48  A    between atoms: _108  and  _109
REMARK   49  A    between atoms: _112  and  _114
REMARK   50  A    between atoms: _114  and  _115
REMARK   51  A    between atoms: _114  and  _117
REMARK   52  A    between atoms: _117  and  _118
REMARK   53  A    between atoms: _121  and  _123
REMARK   54  A    between atoms: _123  and  _124
REMARK   55  A    between atoms: _123  and  _126
REMARK   56  A    between atoms: _126  and  _127
REMARK   57  A    between atoms: _127  and  _128
REMARK   58  A    between atoms: _128  and  _129
REMARK   59  A    between atoms: _129  and  _130
REMARK   60  A    between atoms: _134  and  _136
REMARK   61  A    between atoms: _136  and  _137
REMARK   62  A    between atoms: _136  and  _139
REMARK   63  A    between atoms: _139  and  _140
REMARK   64  A    between atoms: _143  and  _145
REMARK   65  A    between atoms: _145  and  _146
REMARK   66  A    between atoms: _145  and  _148
REMARK   67  A    between atoms: _148  and  _149
REMARK   68  A    between atoms: _152  and  _154
REMARK   69  A    between atoms: _154  and  _155
REMARK   70  A    between atoms: _154  and  _157
REMARK   71  A    between atoms: _160  and  _162
REMARK   72  A    between atoms: _162  and  _163
REMARK   73  A    between atoms: _162  and  _165
REMARK   74  A    between atoms: _165  and  _166
REMARK   75  A    between atoms: _169  and  _171
REMARK   76  A    between atoms: _171  and  _172
REMARK   77  A    between atoms: _171  and  _174
REMARK   78  A    between atoms: _174  and  _175
REMARK   79  A    between atoms: _178  and  _180
REMARK   80  A    between atoms: _180  and  _181
REMARK   81  A    between atoms: _183  and  _185
REMARK   82  A    between atoms: _185  and  _186
REMARK   83  A    between atoms: _185  and  _188
REMARK   84  A    between atoms: _188  and  _189
REMARK   85  A    between atoms: _192  and  _194
REMARK   86  A    between atoms: _194  and  _195
REMARK   87  A    between atoms: _197  and  _199
REMARK   88  A    between atoms: _199  and  _200
REMARK   89  A    between atoms: _199  and  _202
REMARK   90  A    between atoms: _202  and  _203
REMARK   91  A    between atoms: _203  and  _204
REMARK   92  A    between atoms: _206  and  _208
REMARK   93  A    between atoms: _208  and  _209
REMARK   94  A    between atoms: _208  and  _211
REMARK   95  A    between atoms: _211  and  _212
REMARK   96  A    between atoms: _215  and  _217
REMARK   97  A    between atoms: _217  and  _218
REMARK   98  A    between atoms: _217  and  _220
REMARK   99  A    between atoms: _220  and  _221
REMARK  100  A    between atoms: _221  and  _222
REMARK  101  A    between atoms: _222  and  _223
REMARK  102  A    between atoms: _223  and  _224
REMARK  103  A    between atoms: _228  and  _230
REMARK  104  A    between atoms: _230  and  _231
REMARK  105  A    between atoms: _234  and  _236
REMARK  106  A    between atoms: _236  and  _237
REMARK  107  A    between atoms: _236  and  _239
REMARK  108  A    between atoms: _239  and  _240
REMARK  109  A    between atoms: _243  and  _245
REMARK  110  A    between atoms: _245  and  _246
REMARK  111  A    between atoms: _245  and  _248
REMARK  112  A    between atoms: _248  and  _249
REMARK  113  A    between atoms: _252  and  _254
REMARK  114  A    between atoms: _254  and  _255
REMARK  115  A    between atoms: _254  and  _257
REMARK  116  A    between atoms: _257  and  _258
REMARK  117  A    between atoms: _261  and  _263
REMARK  118  A    between atoms: _263  and  _264
REMARK  119  A    between atoms: _263  and  _266
REMARK  120  A    between atoms: _266  and  _267
REMARK  121  A    between atoms: _272  and  _274
REMARK  122  A    between atoms: _274  and  _275
REMARK  123  A    between atoms: _274  and  _277
REMARK  124  A    between atoms: _277  and  _278
REMARK  125  A    between atoms: _283  and  _285
REMARK  126  A    between atoms: _285  and  _286
REMARK  127  A    between atoms: _285  and  _288
REMARK  128  A    between atoms: _288  and  _289
REMARK  129  A    between atoms: _292  and  _294
REMARK  130  A    between atoms: _294  and  _295
REMARK  131  A    between atoms: _297  and  _299
REMARK  132  A    between atoms: _299  and  _300
REMARK  133  A    between atoms: _299  and  _302
REMARK  134  A    between atoms: _302  and  _303
REMARK  135  A    between atoms: _306  and  _308
REMARK  136  A    between atoms: _308  and  _309
REMARK  137  A    between atoms: _308  and  _311
REMARK  138  A    between atoms: _311  and  _312
REMARK  139  A    between atoms: _315  and  _317
REMARK  140  A    between atoms: _317  and  _318
REMARK  141  A    between atoms: _321  and  _323
REMARK  142  A    between atoms: _323  and  _324
REMARK  143  A    between atoms: _323  and  _326
REMARK  144  A    between atoms: _326  and  _327
REMARK  145  A    between atoms: _327  and  _328
REMARK  146  A    between atoms: _328  and  _329
REMARK  147  A    between atoms: _329  and  _330
REMARK  148  A    between atoms: _334  and  _336
REMARK  149  A    between atoms: _336  and  _337
REMARK  150  A    between atoms: _339  and  _341
REMARK  151  A    between atoms: _341  and  _342
REMARK  152  A    between atoms: _341  and  _344
REMARK  153  A    between atoms: _344  and  _345
REMARK  154  A    between atoms: _348  and  _350
REMARK  155  A    between atoms: _350  and  _351
REMARK  156  A    between atoms: _353  and  _355
REMARK  157  A    between atoms: _355  and  _356
REMARK  158  A    between atoms: _355  and  _358
REMARK  159  A    between atoms: _358  and  _359
REMARK  160  A    between atoms: _365  and  _367
REMARK  161  A    between atoms: _367  and  _368
REMARK  162  A    between atoms: _370  and  _372
REMARK  163  A    between atoms: _372  and  _373
REMARK  164  A    between atoms: _372  and  _375
REMARK  165  A    between atoms: _378  and  _380
REMARK  166  A    between atoms: _380  and  _381
REMARK  167  A    between atoms: _383  and  _385
REMARK  168  A    between atoms: _385  and  _386
REMARK  169  A    between atoms: _385  and  _388
REMARK  170  A    between atoms: _388  and  _389
REMARK  171  A    between atoms: _395  and  _397
REMARK  172  A    between atoms: _397  and  _398
REMARK  173  A    between atoms: _397  and  _400
REMARK  174  A    between atoms: _400  and  _401
REMARK  175  A    between atoms: _406  and  _407
REMARK  176  A    between atoms: _409  and  _411
REMARK  177  A    between atoms: _411  and  _412
REMARK  178  A    between atoms: _411  and  _414
REMARK  179  A    between atoms: _414  and  _415
REMARK  180  A    between atoms: _420  and  _421
REMARK  181  A    between atoms: _423  and  _425
REMARK  182  A    between atoms: _425  and  _426
REMARK  183  A    between atoms: _425  and  _428
REMARK  184  A    between atoms: _431  and  _433
REMARK  185  A    between atoms: _433  and  _434
REMARK  186  A    between atoms: _433  and  _436
REMARK  187  A    between atoms: _436  and  _437
REMARK  188  A    between atoms: _440  and  _442
REMARK  189  A    between atoms: _442  and  _443
REMARK  190  A    between atoms: _442  and  _445
REMARK  191  A    between atoms: _448  and  _450
REMARK  192  A    between atoms: _450  and  _451
REMARK  193  A    between atoms: _450  and  _453
REMARK  194  A    between atoms: _453  and  _454
REMARK  195  A    between atoms: _457  and  _459
REMARK  196  A    between atoms: _459  and  _460
REMARK  197  A    between atoms: _459  and  _462
REMARK  198  A    between atoms: _462  and  _463
REMARK  199  A    between atoms: _466  and  _468
REMARK  200  A    between atoms: _468  and  _469
REMARK  201  A    between atoms: _468  and  _471
REMARK  202  A    between atoms: _471  and  _472
REMARK  203  A    between atoms: _472  and  _473
REMARK  204  A    between atoms: _473  and  _474
REMARK  205  A    between atoms: _474  and  _475
REMARK  206  A    between atoms: _479  and  _481
REMARK  207  A    between atoms: _481  and  _482
REMARK  208  A    between atoms: _481  and  _484
REMARK  209  A    between atoms: _484  and  _485
REMARK  210  A    between atoms: _490  and  _492
REMARK  211  A    between atoms: _492  and  _493
REMARK  212  A    between atoms: _492  and  _495
REMARK  213  A    between atoms: _495  and  _496
REMARK  214  A    between atoms: _506  and  _508
REMARK  215  A    between atoms: _508  and  _509
REMARK  216  A    between atoms: _508  and  _511
REMARK  217  A    between atoms: _511  and  _512
REMARK  218  A    between atoms: _512  and  _513
REMARK  219  A    between atoms: _516  and  _518
REMARK  220  A    between atoms: _518  and  _519
REMARK  221  A    between atoms: _518  and  _521
REMARK  222  A    between atoms: _521  and  _522
REMARK  223  A    between atoms: _524  and  _526
REMARK  224  A    between atoms: _526  and  _527
REMARK  225  A    between atoms: _526  and  _529
REMARK  226  A    between atoms: _529  and  _530
REMARK  227  A    between atoms: _536  and  _538
REMARK  228  A    between atoms: _538  and  _539
REMARK  229  A    between atoms: _538  and  _541
REMARK  230  A    between atoms: _541  and  _542
REMARK  231  A    between atoms: _545  and  _547
REMARK  232  A    between atoms: _547  and  _548
REMARK  233  A    between atoms: _547  and  _550
REMARK  234  A    between atoms: _553  and  _555
REMARK  235  A    between atoms: _555  and  _556
REMARK  236  A    between atoms: _558  and  _560
REMARK  237  A    between atoms: _560  and  _561
REMARK  238  A    between atoms: _560  and  _563
REMARK  239  A    between atoms: _563  and  _564
REMARK  240  A    between atoms: _567  and  _569
REMARK  241  A    between atoms: _569  and  _570
REMARK  242  A    between atoms: _569  and  _572
REMARK  243  A    between atoms: _572  and  _573
REMARK  244  A    between atoms: _573  and  _574
REMARK  245  A    between atoms: _574  and  _575
REMARK  246  A    between atoms: _575  and  _576
REMARK  247  A    between atoms: _580  and  _582
REMARK  248  A    between atoms: _582  and  _583
REMARK  249  A    between atoms: _582  and  _585
REMARK                            x       y       z     vdW  Elec       q    Type
REMARK                         _______ _______ _______ _____ _____    ______ ____
ROOT
ATOM      1  CA  ASN A   5      -0.812  -8.636 -20.887  0.00  0.00    +0.158 C 
ENDROOT
BRANCH   1   3
ATOM      2  C   SER A   4      -2.119  -7.322 -19.172  0.00  0.00    +0.243 C 
ATOM      3  N   ASN A   5      -1.356  -8.397 -19.527  0.00  0.00    -0.297 N 
ATOM      4  H   ASN A   5      -1.140  -9.099 -18.791  0.00  0.00    +0.150 HD
ATOM      5  O   SER A   4      -2.438  -6.424 -19.953  0.00  0.00    -0.273 OA
BRANCH   2   6
ATOM      6  CA  SER A   4      -2.649  -7.269 -17.738  0.00  0.00    +0.178 C 
BRANCH   6   8
ATOM      7  C   ILE A   3      -4.085  -9.307 -17.841  0.00  0.00    +0.241 C 
ATOM      8  N   SER A   4      -3.083  -8.593 -17.262  0.00  0.00    -0.295 N 
ATOM      9  H   SER A   4      -2.597  -9.004 -16.439  0.00  0.00    +0.150 HD
ATOM     10  O   ILE A   3      -4.728  -8.907 -18.825  0.00  0.00    -0.273 OA
BRANCH   7  11
ATOM     11  CA  ILE A   3      -4.424 -10.714 -17.253  0.00  0.00    +0.149 C 
BRANCH  11  13
ATOM     12  C   LEU A   2      -2.241 -11.718 -17.939  0.00  0.00    +0.241 C 
ATOM     13  N   ILE A   3      -3.152 -11.422 -16.971  0.00  0.00    -0.297 N 
ATOM     14  H   ILE A   3      -2.947 -11.705 -15.991  0.00  0.00    +0.150 HD
ATOM     15  O   LEU A   2      -2.398 -11.445 -19.130  0.00  0.00    -0.273 OA
BRANCH  12  16
ATOM     16  CA  LEU A   2      -0.927 -12.359 -17.508  0.00  0.00    +0.149 C 
BRANCH  16  18
ATOM     17  C   GLU A   1       0.013 -10.489 -16.165  0.00  0.00    +0.238 C 
ATOM     18  N   LEU A   2      -0.448 -11.755 -16.252  0.00  0.00    -0.297 N 
ATOM     19  H   LEU A   2      -0.466 -12.334 -15.388  0.00  0.00    +0.150 HD
ATOM     20  O   GLU A   1       0.069  -9.711 -17.124  0.00  0.00    -0.274 OA
BRANCH  17  21
ATOM     21  CA  GLU A   1       0.455 -10.009 -14.788  0.00  0.00    +0.145 C 
BRANCH  21  22
ATOM     22  N   GLU A   1      -0.522 -10.349 -13.742  0.00  0.00    -0.238 NA
ATOM     23  H   GLU A   1      -0.232 -11.006 -12.990  0.00  0.00    +0.142 HD
ENDBRANCH  21  22
BRANCH  21  24
ATOM     24  CB  GLU A   1       1.874 -10.507 -14.441  0.00  0.00    +0.038 C 
BRANCH  24  25
ATOM     25  CG  GLU A   1       2.505  -9.797 -13.237  0.00  0.00    +0.116 C 
BRANCH  25  26
ATOM     26  CD  GLU A   1       2.429  -8.277 -13.212  0.00  0.00    +0.365 C 
ATOM     27  OE2 GLU A   1       2.140  -7.720 -12.130  0.00  0.00    -0.246 OA
ATOM     28  OE1 GLU A   1       2.630  -7.645 -14.273  0.00  0.00    -0.246 OA
ENDBRANCH  25  26
ENDBRANCH  24  25
ENDBRANCH  21  24
ENDBRANCH  17  21
ENDBRANCH  16  18
BRANCH  16  29
ATOM     29  CB  LEU A   2      -0.987 -13.892 -17.451  0.00  0.00    +0.029 C 
BRANCH  29  30
ATOM     30  CG  LEU A   2       0.381 -14.590 -17.271  0.00  0.00    +0.002 C 
ATOM     31  CD2 LEU A   2       0.205 -16.035 -16.894  0.00  0.00    +0.000 C 
ATOM     32  CD1 LEU A   2       1.277 -14.466 -18.536  0.00  0.00    +0.000 C 
ENDBRANCH  29  30
ENDBRANCH  16  29
ENDBRANCH  12  16
ENDBRANCH  11  13
BRANCH  11  33
ATOM     33  CB  ILE A   3      -5.429 -10.713 -16.056  0.00  0.00    +0.027 C 
ATOM     34  CG2 ILE A   3      -6.572  -9.671 -16.260  0.00  0.00    +0.002 C 
BRANCH  33  35
ATOM     35  CG1 ILE A   3      -6.042 -12.135 -15.870  0.00  0.00    +0.002 C 
ATOM     36  CD1 ILE A   3      -6.907 -12.386 -14.541  0.00  0.00    +0.000 C 
ENDBRANCH  33  35
ENDBRANCH  11  33
ENDBRANCH   7  11
ENDBRANCH   6   8
BRANCH   6  37
ATOM     37  CB  SER A   4      -1.655  -6.630 -16.779  0.00  0.00    +0.166 C 
BRANCH  37  38
ATOM     38  OG  SER A   4      -2.319  -6.348 -15.558  0.00  0.00    -0.380 OA
ATOM     39  H   SER A   4      -2.667  -7.190 -15.171  0.00  0.00    +0.211 HD
ENDBRANCH  37  38
ENDBRANCH   6  37
ENDBRANCH   2   6
ENDBRANCH   1   3
BRANCH   1  40
ATOM     40  C   ASN A   5      -1.998  -8.779 -21.853  0.00  0.00    +0.241 C 
ATOM     41  N   SER A   6      -3.008  -9.606 -21.466  0.00  0.00    -0.295 N 
ATOM     42  H   SER A   6      -2.911 -10.096 -20.554  0.00  0.00    +0.150 HD
ATOM     43  O   ASN A   5      -2.018  -8.111 -22.890  0.00  0.00    -0.273 OA
BRANCH  41  44
ATOM     44  CA  SER A   6      -4.228  -9.854 -22.251  0.00  0.00    +0.178 C 
BRANCH  44  45
ATOM     45  C   SER A   6      -5.014  -8.553 -22.432  0.00  0.00    +0.243 C 
ATOM     46  N   SER A   7      -5.206  -7.793 -21.330  0.00  0.00    -0.295 N 
ATOM     47  H   SER A   7      -4.830  -8.146 -20.427  0.00  0.00    +0.150 HD
ATOM     48  O   SER A   6      -5.403  -8.233 -23.560  0.00  0.00    -0.273 OA
BRANCH  46  49
ATOM     49  CA  SER A   7      -5.909  -6.503 -21.322  0.00  0.00    +0.178 C 
BRANCH  49  50
ATOM     50  C   SER A   7      -5.229  -5.518 -22.290  0.00  0.00    +0.243 C 
ATOM     51  N   ASP A   8      -3.870  -5.443 -22.264  0.00  0.00    -0.296 N 
ATOM     52  H   ASP A   8      -3.356  -6.019 -21.567  0.00  0.00    +0.150 HD
ATOM     53  O   SER A   7      -5.928  -4.867 -23.070  0.00  0.00    -0.273 OA
BRANCH  51  54
ATOM     54  CA  ASP A   8      -3.092  -4.587 -23.174  0.00  0.00    +0.160 C 
BRANCH  54  55
ATOM     55  C   ASP A   8      -3.316  -4.992 -24.639  0.00  0.00    +0.241 C 
ATOM     56  N   ALA A   9      -3.354  -6.320 -24.944  0.00  0.00    -0.297 N 
ATOM     57  H   ALA A   9      -3.207  -7.003 -24.174  0.00  0.00    +0.150 HD
ATOM     58  O   ASP A   8      -3.505  -4.108 -25.465  0.00  0.00    -0.273 OA
BRANCH  56  59
ATOM     59  CA  ALA A   9      -3.594  -6.850 -26.314  0.00  0.00    +0.149 C 
ATOM     60  CB  ALA A   9      -3.415  -8.353 -26.348  0.00  0.00    +0.031 C 
BRANCH  59  61
ATOM     61  C   ALA A   9      -4.992  -6.486 -26.813  0.00  0.00    +0.241 C 
ATOM     62  N   LEU A  10      -5.981  -6.532 -25.901  0.00  0.00    -0.298 N 
ATOM     63  H   LEU A  10      -5.731  -6.837 -24.939  0.00  0.00    +0.150 HD
ATOM     64  O   ALA A   9      -5.153  -6.159 -27.995  0.00  0.00    -0.273 OA
BRANCH  62  65
ATOM     65  CA  LEU A  10      -7.383  -6.187 -26.156  0.00  0.00    +0.137 C 
BRANCH  65  66
ATOM     66  C   LEU A  10      -7.494  -4.708 -26.448  0.00  0.00    +0.227 C 
ATOM     67  O   LEU A  10      -8.137  -4.350 -27.433  0.00  0.00    -0.286 OA
ENDBRANCH  65  66
BRANCH  65  68
ATOM     68  CB  LEU A  10      -8.296  -6.651 -25.020  0.00  0.00    +0.028 C 
BRANCH  68  69
ATOM     69  CG  LEU A  10      -8.507  -8.173 -24.945  0.00  0.00    +0.002 C 
ATOM     70  CD2 LEU A  10      -8.979  -8.582 -23.596  0.00  0.00    +0.000 C 
ATOM     71  CD1 LEU A  10      -9.489  -8.668 -26.009  0.00  0.00    +0.000 C 
ENDBRANCH  68  69
ENDBRANCH  65  68
ENDBRANCH  62  65
ENDBRANCH  59  61
ENDBRANCH  56  59
ENDBRANCH  54  55
BRANCH  54  72
ATOM     72  CB  ASP A   8      -1.602  -4.578 -22.810  0.00  0.00    +0.143 C 
BRANCH  72  73
ATOM     73  CG  ASP A   8      -1.253  -3.865 -21.502  0.00  0.00    +0.367 C 
ATOM     74  OD2 ASP A   8      -2.155  -3.231 -20.900  0.00  0.00    -0.246 OA
ATOM     75  OD1 ASP A   8      -0.090  -3.952 -21.077  0.00  0.00    -0.246 OA
ENDBRANCH  72  73
ENDBRANCH  54  72
ENDBRANCH  51  54
ENDBRANCH  49  50
BRANCH  49  76
ATOM     76  CB  SER A   7      -5.978  -5.932 -19.912  0.00  0.00    +0.166 C 
BRANCH  76  77
ATOM     77  OG  SER A   7      -6.763  -4.754 -19.935  0.00  0.00    -0.380 OA
ATOM     78  H   SER A   7      -6.348  -4.094 -20.545  0.00  0.00    +0.211 HD
ENDBRANCH  76  77
ENDBRANCH  49  76
ENDBRANCH  46  49
ENDBRANCH  44  45
BRANCH  44  79
ATOM     79  CB  SER A   6      -5.093 -10.915 -21.576  0.00  0.00    +0.166 C 
BRANCH  79  80
ATOM     80  OG  SER A   6      -4.474 -12.184 -21.703  0.00  0.00    -0.380 OA
ATOM     81  H   SER A   6      -4.370 -12.405 -22.662  0.00  0.00    +0.211 HD
ENDBRANCH  79  80
ENDBRANCH  44  79
ENDBRANCH  41  44
ENDBRANCH   1  40
BRANCH   1  82
ATOM     82  CB  ASN A   5       0.056  -9.915 -20.953  0.00  0.00    +0.114 C 
BRANCH  82  83
ATOM     83  CG  ASN A   5       1.420  -9.883 -20.294  0.00  0.00    +0.222 C 
ATOM     84  OD1 ASN A   5       1.914 -10.910 -19.827  0.00  0.00    -0.275 OA
ATOM     85  ND2 ASN A   5       2.078  -8.745 -20.263  0.00  0.00    -0.329 N 
ATOM     86 HD21 ASN A   5       3.027  -8.705 -19.840  0.00  0.00    +0.145 HD
ATOM     87 HD22 ASN A   5       1.649  -7.885 -20.661  0.00  0.00    +0.145 HD
ENDBRANCH  82  83
ENDBRANCH   1  82
TORSDOF 39
REMARK  Name = ../refined-set-2016/4o05/4o05_pocket.pdb
REMARK  249 active torsions:
REMARK  status: ('A' for Active; 'I' for Inactive)
REMARK    1  A    between atoms: _1  and  _3
REMARK    2  A    between atoms: _3  and  _4
REMARK    3  A    between atoms: _3  and  _6
REMARK    4  A    between atoms: _6  and  _7
REMARK    5  A    between atoms: _13  and  _15
REMARK    6  A    between atoms: _15  and  _16
REMARK    7  A    between atoms: _15  and  _18
REMARK    8  A    between atoms: _18  and  _19
REMARK    9  A    between atoms: _19  and  _20
REMARK   10  A    between atoms: _25  and  _27
REMARK   11  A    between atoms: _27  and  _28
REMARK   12  A    between atoms: _27  and  _30
REMARK   13  A    between atoms: _30  and  _31
REMARK   14  A    between atoms: _34  and  _36
REMARK   15  A    between atoms: _36  and  _37
REMARK   16  A    between atoms: _36  and  _39
REMARK   17  A    between atoms: _39  and  _40
REMARK   18  A    between atoms: _40  and  _41
REMARK   19  A    between atoms: _44  and  _46
REMARK   20  A    between atoms: _46  and  _47
REMARK   21  A    between atoms: _46  and  _49
REMARK   22  A    between atoms: _49  and  _50
REMARK   23  A    between atoms: _53  and  _55
REMARK   24  A    between atoms: _55  and  _56
REMARK   25  A    between atoms: _55  and  _58
REMARK   26  A    between atoms: _58  and  _59
REMARK   27  A    between atoms: _62  and  _64
REMARK   28  A    between atoms: _64  and  _65
REMARK   29  A    between atoms: _64  and  _67
REMARK   30  A    between atoms: _67  and  _68
REMARK   31  A    between atoms: _70  and  _72
REMARK   32  A    between atoms: _72  and  _73
REMARK   33  A    between atoms: _72  and  _75
REMARK   34  A    between atoms: _75  and  _76
REMARK   35  A    between atoms: _81  and  _83
REMARK   36  A    between atoms: _83  and  _84
REMARK   37  A    between atoms: _83  and  _86
REMARK   38  A    between atoms: _86  and  _87
REMARK   39  A    between atoms: _89  and  _91
REMARK   40  A    between atoms: _91  and  _92
REMARK   41  A    between atoms: _91  and  _94
REMARK   42  A    between atoms: _94  and  _95
REMARK   43  A    between atoms: _97  and  _99
REMARK   44  A    between atoms: _99  and  _100
REMARK   45  A    between atoms: _99  and  _102
REMARK   46  A    between atoms: _102  and  _103
REMARK   47  A    between atoms: _106  and  _108
REMARK   48  A    between atoms: _108  and  _109
REMARK   49  A    between atoms: _112  and  _114
REMARK   50  A    between atoms: _114  and  _115
REMARK   51  A    between atoms: _114  and  _117
REMARK   52  A    between atoms: _117  and  _118
REMARK   53  A    between atoms: _121  and  _123
REMARK   54  A    between atoms: _123  and  _124
REMARK   55  A    between atoms: _123  and  _126
REMARK   56  A    between atoms: _126  and  _127
REMARK   57  A    between atoms: _127  and  _128
REMARK   58  A    between atoms: _128  and  _129
REMARK   59  A    between atoms: _129  and  _130
REMARK   60  A    between atoms: _134  and  _136
REMARK   61  A    between atoms: _136  and  _137
REMARK   62  A    between atoms: _136  and  _139
REMARK   63  A    between atoms: _139  and  _140
REMARK   64  A    between atoms: _143  and  _145
REMARK   65  A    between atoms: _145  and  _146
REMARK   66  A    between atoms: _145  and  _148
REMARK   67  A    between atoms: _148  and  _149
REMARK   68  A    between atoms: _152  and  _154
REMARK   69  A    between atoms: _154  and  _155
REMARK   70  A    between atoms: _154  and  _157
REMARK   71  A    between atoms: _160  and  _162
REMARK   72  A    between atoms: _162  and  _163
REMARK   73  A    between atoms: _162  and  _165
REMARK   74  A    between atoms: _165  and  _166
REMARK   75  A    between atoms: _169  and  _171
REMARK   76  A    between atoms: _171  and  _172
REMARK   77  A    between atoms: _171  and  _174
REMARK   78  A    between atoms: _174  and  _175
REMARK   79  A    between atoms: _178  and  _180
REMARK   80  A    between atoms: _180  and  _181
REMARK   81  A    between atoms: _183  and  _185
REMARK   82  A    between atoms: _185  and  _186
REMARK   83  A    between atoms: _185  and  _188
REMARK   84  A    between atoms: _188  and  _189
REMARK   85  A    between atoms: _192  and  _194
REMARK   86  A    between atoms: _194  and  _195
REMARK   87  A    between atoms: _197  and  _199
REMARK   88  A    between atoms: _199  and  _200
REMARK   89  A    between atoms: _199  and  _202
REMARK   90  A    between atoms: _202  and  _203
REMARK   91  A    between atoms: _203  and  _204
REMARK   92  A    between atoms: _206  and  _208
REMARK   93  A    between atoms: _208  and  _209
REMARK   94  A    between atoms: _208  and  _211
REMARK   95  A    between atoms: _211  and  _212
REMARK   96  A    between atoms: _215  and  _217
REMARK   97  A    between atoms: _217  and  _218
REMARK   98  A    between atoms: _217  and  _220
REMARK   99  A    between atoms: _220  and  _221
REMARK  100  A    between atoms: _221  and  _222
REMARK  101  A    between atoms: _222  and  _223
REMARK  102  A    between atoms: _223  and  _224
REMARK  103  A    between atoms: _228  and  _230
REMARK  104  A    between atoms: _230  and  _231
REMARK  105  A    between atoms: _234  and  _236
REMARK  106  A    between atoms: _236  and  _237
REMARK  107  A    between atoms: _236  and  _239
REMARK  108  A    between atoms: _239  and  _240
REMARK  109  A    between atoms: _243  and  _245
REMARK  110  A    between atoms: _245  and  _246
REMARK  111  A    between atoms: _245  and  _248
REMARK  112  A    between atoms: _248  and  _249
REMARK  113  A    between atoms: _252  and  _254
REMARK  114  A    between atoms: _254  and  _255
REMARK  115  A    between atoms: _254  and  _257
REMARK  116  A    between atoms: _257  and  _258
REMARK  117  A    between atoms: _261  and  _263
REMARK  118  A    between atoms: _263  and  _264
REMARK  119  A    between atoms: _263  and  _266
REMARK  120  A    between atoms: _266  and  _267
REMARK  121  A    between atoms: _272  and  _274
REMARK  122  A    between atoms: _274  and  _275
REMARK  123  A    between atoms: _274  and  _277
REMARK  124  A    between atoms: _277  and  _278
REMARK  125  A    between atoms: _283  and  _285
REMARK  126  A    between atoms: _285  and  _286
REMARK  127  A    between atoms: _285  and  _288
REMARK  128  A    between atoms: _288  and  _289
REMARK  129  A    between atoms: _292  and  _294
REMARK  130  A    between atoms: _294  and  _295
REMARK  131  A    between atoms: _297  and  _299
REMARK  132  A    between atoms: _299  and  _300
REMARK  133  A    between atoms: _299  and  _302
REMARK  134  A    between atoms: _302  and  _303
REMARK  135  A    between atoms: _306  and  _308
REMARK  136  A    between atoms: _308  and  _309
REMARK  137  A    between atoms: _308  and  _311
REMARK  138  A    between atoms: _311  and  _312
REMARK  139  A    between atoms: _315  and  _317
REMARK  140  A    between atoms: _317  and  _318
REMARK  141  A    between atoms: _321  and  _323
REMARK  142  A    between atoms: _323  and  _324
REMARK  143  A    between atoms: _323  and  _326
REMARK  144  A    between atoms: _326  and  _327
REMARK  145  A    between atoms: _327  and  _328
REMARK  146  A    between atoms: _328  and  _329
REMARK  147  A    between atoms: _329  and  _330
REMARK  148  A    between atoms: _334  and  _336
REMARK  149  A    between atoms: _336  and  _337
REMARK  150  A    between atoms: _339  and  _341
REMARK  151  A    between atoms: _341  and  _342
REMARK  152  A    between atoms: _341  and  _344
REMARK  153  A    between atoms: _344  and  _345
REMARK  154  A    between atoms: _348  and  _350
REMARK  155  A    between atoms: _350  and  _351
REMARK  156  A    between atoms: _353  and  _355
REMARK  157  A    between atoms: _355  and  _356
REMARK  158  A    between atoms: _355  and  _358
REMARK  159  A    between atoms: _358  and  _359
REMARK  160  A    between atoms: _365  and  _367
REMARK  161  A    between atoms: _367  and  _368
REMARK  162  A    between atoms: _370  and  _372
REMARK  163  A    between atoms: _372  and  _373
REMARK  164  A    between atoms: _372  and  _375
REMARK  165  A    between atoms: _378  and  _380
REMARK  166  A    between atoms: _380  and  _381
REMARK  167  A    between atoms: _383  and  _385
REMARK  168  A    between atoms: _385  and  _386
REMARK  169  A    between atoms: _385  and  _388
REMARK  170  A    between atoms: _388  and  _389
REMARK  171  A    between atoms: _395  and  _397
REMARK  172  A    between atoms: _397  and  _398
REMARK  173  A    between atoms: _397  and  _400
REMARK  174  A    between atoms: _400  and  _401
REMARK  175  A    between atoms: _406  and  _407
REMARK  176  A    between atoms: _409  and  _411
REMARK  177  A    between atoms: _411  and  _412
REMARK  178  A    between atoms: _411  and  _414
REMARK  179  A    between atoms: _414  and  _415
REMARK  180  A    between atoms: _420  and  _421
REMARK  181  A    between atoms: _423  and  _425
REMARK  182  A    between atoms: _425  and  _426
REMARK  183  A    between atoms: _425  and  _428
REMARK  184  A    between atoms: _431  and  _433
REMARK  185  A    between atoms: _433  and  _434
REMARK  186  A    between atoms: _433  and  _436
REMARK  187  A    between atoms: _436  and  _437
REMARK  188  A    between atoms: _440  and  _442
REMARK  189  A    between atoms: _442  and  _443
REMARK  190  A    between atoms: _442  and  _445
REMARK  191  A    between atoms: _448  and  _450
REMARK  192  A    between atoms: _450  and  _451
REMARK  193  A    between atoms: _450  and  _453
REMARK  194  A    between atoms: _453  and  _454
REMARK  195  A    between atoms: _457  and  _459
REMARK  196  A    between atoms: _459  and  _460
REMARK  197  A    between atoms: _459  and  _462
REMARK  198  A    between atoms: _462  and  _463
REMARK  199  A    between atoms: _466  and  _468
REMARK  200  A    between atoms: _468  and  _469
REMARK  201  A    between atoms: _468  and  _471
REMARK  202  A    between atoms: _471  and  _472
REMARK  203  A    between atoms: _472  and  _473
REMARK  204  A    between atoms: _473  and  _474
REMARK  205  A    between atoms: _474  and  _475
REMARK  206  A    between atoms: _479  and  _481
REMARK  207  A    between atoms: _481  and  _482
REMARK  208  A    between atoms: _481  and  _484
REMARK  209  A    between atoms: _484  and  _485
REMARK  210  A    between atoms: _490  and  _492
REMARK  211  A    between atoms: _492  and  _493
REMARK  212  A    between atoms: _492  and  _495
REMARK  213  A    between atoms: _495  and  _496
REMARK  214  A    between atoms: _506  and  _508
REMARK  215  A    between atoms: _508  and  _509
REMARK  216  A    between atoms: _508  and  _511
REMARK  217  A    between atoms: _511  and  _512
REMARK  218  A    between atoms: _512  and  _513
REMARK  219  A    between atoms: _516  and  _518
REMARK  220  A    between atoms: _518  and  _519
REMARK  221  A    between atoms: _518  and  _521
REMARK  222  A    between atoms: _521  and  _522
REMARK  223  A    between atoms: _524  and  _526
REMARK  224  A    between atoms: _526  and  _527
REMARK  225  A    between atoms: _526  and  _529
REMARK  226  A    between atoms: _529  and  _530
REMARK  227  A    between atoms: _536  and  _538
REMARK  228  A    between atoms: _538  and  _539
REMARK  229  A    between atoms: _538  and  _541
REMARK  230  A    between atoms: _541  and  _542
REMARK  231  A    between atoms: _545  and  _547
REMARK  232  A    between atoms: _547  and  _548
REMARK  233  A    between atoms: _547  and  _550
REMARK  234  A    between atoms: _553  and  _555
REMARK  235  A    between atoms: _555  and  _556
REMARK  236  A    between atoms: _558  and  _560
REMARK  237  A    between atoms: _560  and  _561
REMARK  238  A    between atoms: _560  and  _563
REMARK  239  A    between atoms: _563  and  _564
REMARK  240  A    between atoms: _567  and  _569
REMARK  241  A    between atoms: _569  and  _570
REMARK  242  A    between atoms: _569  and  _572
REMARK  243  A    between atoms: _572  and  _573
REMARK  244  A    between atoms: _573  and  _574
REMARK  245  A    between atoms: _574  and  _575
REMARK  246  A    between atoms: _575  and  _576
REMARK  247  A    between atoms: _580  and  _582
REMARK  248  A    between atoms: _582  and  _583
REMARK  249  A    between atoms: _582  and  _585
REMARK                            x       y       z     vdW  Elec       q    Type
REMARK                         _______ _______ _______ _____ _____    ______ ____
ROOT
ATOM      1  CA  LYS A   1      -4.498  -2.625 -28.993  0.00  0.00    +0.145 C 
ENDROOT
BRANCH   1   2
ATOM      2  C   LYS A   1      -5.420  -2.920 -30.173  0.00  0.00    +0.238 C 
ATOM      3  N   ILE A   2      -6.118  -4.071 -30.159  0.00  0.00    -0.298 N 
ATOM      4  H   ILE A   2      -6.004  -4.723 -29.357  0.00  0.00    +0.150 HD
ATOM      5  O   LYS A   1      -5.500  -2.086 -31.080  0.00  0.00    -0.274 OA
BRANCH   3   6
ATOM      6  CA  ILE A   2      -7.039  -4.431 -31.251  0.00  0.00    +0.137 C 
BRANCH   6   7
ATOM      7  C   ILE A   2      -8.253  -3.475 -31.251  0.00  0.00    +0.227 C 
ATOM      8  O   ILE A   2      -8.670  -3.069 -32.335  0.00  0.00    -0.286 OA
ENDBRANCH   6   7
BRANCH   6   9
ATOM      9  CB  ILE A   2      -7.425  -5.946 -31.319  0.00  0.00    +0.026 C 
ATOM     10  CG2 ILE A   2      -8.222  -6.428 -30.105  0.00  0.00    +0.002 C 
BRANCH   9  11
ATOM     11  CG1 ILE A   2      -8.136  -6.313 -32.667  0.00  0.00    +0.002 C 
ATOM     12  CD1 ILE A   2      -7.271  -6.145 -33.988  0.00  0.00    +0.000 C 
ENDBRANCH   9  11
ENDBRANCH   6   9
ENDBRANCH   3   6
ENDBRANCH   1   2
BRANCH   1  13
ATOM     13  N   LYS A   1      -5.156  -2.788 -27.689  0.00  0.00    -0.238 NA
ATOM     14  H   LYS A   1      -4.764  -3.497 -27.037  0.00  0.00    +0.142 HD
ENDBRANCH   1  13
BRANCH   1  15
ATOM     15  CB  LYS A   1      -3.194  -3.430 -29.087  0.00  0.00    +0.026 C 
BRANCH  15  16
ATOM     16  CG  LYS A   1      -2.100  -2.848 -28.217  0.00  0.00    -0.000 C 
BRANCH  16  17
ATOM     17  CD  LYS A   1      -0.738  -3.481 -28.462  0.00  0.00    -0.024 C 
BRANCH  17  18
ATOM     18  CE  LYS A   1       0.159  -3.405 -27.239  0.00  0.00    -0.086 C 
BRANCH  18  19
ATOM     19  NZ  LYS A   1       0.488  -2.022 -26.795  0.00  0.00    +0.380 N 
ATOM     20  HZ1 LYS A   1       1.102  -2.065 -25.957  0.00  0.00    -0.089 HD
ATOM     21  HZ2 LYS A   1      -0.390  -1.518 -26.557  0.00  0.00    -0.089 HD
ATOM     22  HZ3 LYS A   1       0.980  -1.521 -27.562  0.00  0.00    -0.089 HD
ENDBRANCH  18  19
ENDBRANCH  17  18
ENDBRANCH  16  17
ENDBRANCH  15  16
ENDBRANCH   1  15
TORSDOF 11
REMARK  Name = ../refined-set-2016/4o05/4o05_pocket.pdb
REMARK  249 active torsions:
REMARK  status: ('A' for Active; 'I' for Inactive)
REMARK    1  A    between atoms: _1  and  _3
REMARK    2  A    between atoms: _3  and  _4
REMARK    3  A    between atoms: _3  and  _6
REMARK    4  A    between atoms: _6  and  _7
REMARK    5  A    between atoms: _13  and  _15
REMARK    6  A    between atoms: _15  and  _16
REMARK    7  A    between atoms: _15  and  _18
REMARK    8  A    between atoms: _18  and  _19
REMARK    9  A    between atoms: _19  and  _20
REMARK   10  A    between atoms: _25  and  _27
REMARK   11  A    between atoms: _27  and  _28
REMARK   12  A    between atoms: _27  and  _30
REMARK   13  A    between atoms: _30  and  _31
REMARK   14  A    between atoms: _34  and  _36
REMARK   15  A    between atoms: _36  and  _37
REMARK   16  A    between atoms: _36  and  _39
REMARK   17  A    between atoms: _39  and  _40
REMARK   18  A    between atoms: _40  and  _41
REMARK   19  A    between atoms: _44  and  _46
REMARK   20  A    between atoms: _46  and  _47
REMARK   21  A    between atoms: _46  and  _49
REMARK   22  A    between atoms: _49  and  _50
REMARK   23  A    between atoms: _53  and  _55
REMARK   24  A    between atoms: _55  and  _56
REMARK   25  A    between atoms: _55  and  _58
REMARK   26  A    between atoms: _58  and  _59
REMARK   27  A    between atoms: _62  and  _64
REMARK   28  A    between atoms: _64  and  _65
REMARK   29  A    between atoms: _64  and  _67
REMARK   30  A    between atoms: _67  and  _68
REMARK   31  A    between atoms: _70  and  _72
REMARK   32  A    between atoms: _72  and  _73
REMARK   33  A    between atoms: _72  and  _75
REMARK   34  A    between atoms: _75  and  _76
REMARK   35  A    between atoms: _81  and  _83
REMARK   36  A    between atoms: _83  and  _84
REMARK   37  A    between atoms: _83  and  _86
REMARK   38  A    between atoms: _86  and  _87
REMARK   39  A    between atoms: _89  and  _91
REMARK   40  A    between atoms: _91  and  _92
REMARK   41  A    between atoms: _91  and  _94
REMARK   42  A    between atoms: _94  and  _95
REMARK   43  A    between atoms: _97  and  _99
REMARK   44  A    between atoms: _99  and  _100
REMARK   45  A    between atoms: _99  and  _102
REMARK   46  A    between atoms: _102  and  _103
REMARK   47  A    between atoms: _106  and  _108
REMARK   48  A    between atoms: _108  and  _109
REMARK   49  A    between atoms: _112  and  _114
REMARK   50  A    between atoms: _114  and  _115
REMARK   51  A    between atoms: _114  and  _117
REMARK   52  A    between atoms: _117  and  _118
REMARK   53  A    between atoms: _121  and  _123
REMARK   54  A    between atoms: _123  and  _124
REMARK   55  A    between atoms: _123  and  _126
REMARK   56  A    between atoms: _126  and  _127
REMARK   57  A    between atoms: _127  and  _128
REMARK   58  A    between atoms: _128  and  _129
REMARK   59  A    between atoms: _129  and  _130
REMARK   60  A    between atoms: _134  and  _136
REMARK   61  A    between atoms: _136  and  _137
REMARK   62  A    between atoms: _136  and  _139
REMARK   63  A    between atoms: _139  and  _140
REMARK   64  A    between atoms: _143  and  _145
REMARK   65  A    between atoms: _145  and  _146
REMARK   66  A    between atoms: _145  and  _148
REMARK   67  A    between atoms: _148  and  _149
REMARK   68  A    between atoms: _152  and  _154
REMARK   69  A    between atoms: _154  and  _155
REMARK   70  A    between atoms: _154  and  _157
REMARK   71  A    between atoms: _160  and  _162
REMARK   72  A    between atoms: _162  and  _163
REMARK   73  A    between atoms: _162  and  _165
REMARK   74  A    between atoms: _165  and  _166
REMARK   75  A    between atoms: _169  and  _171
REMARK   76  A    between atoms: _171  and  _172
REMARK   77  A    between atoms: _171  and  _174
REMARK   78  A    between atoms: _174  and  _175
REMARK   79  A    between atoms: _178  and  _180
REMARK   80  A    between atoms: _180  and  _181
REMARK   81  A    between atoms: _183  and  _185
REMARK   82  A    between atoms: _185  and  _186
REMARK   83  A    between atoms: _185  and  _188
REMARK   84  A    between atoms: _188  and  _189
REMARK   85  A    between atoms: _192  and  _194
REMARK   86  A    between atoms: _194  and  _195
REMARK   87  A    between atoms: _197  and  _199
REMARK   88  A    between atoms: _199  and  _200
REMARK   89  A    between atoms: _199  and  _202
REMARK   90  A    between atoms: _202  and  _203
REMARK   91  A    between atoms: _203  and  _204
REMARK   92  A    between atoms: _206  and  _208
REMARK   93  A    between atoms: _208  and  _209
REMARK   94  A    between atoms: _208  and  _211
REMARK   95  A    between atoms: _211  and  _212
REMARK   96  A    between atoms: _215  and  _217
REMARK   97  A    between atoms: _217  and  _218
REMARK   98  A    between atoms: _217  and  _220
REMARK   99  A    between atoms: _220  and  _221
REMARK  100  A    between atoms: _221  and  _222
REMARK  101  A    between atoms: _222  and  _223
REMARK  102  A    between atoms: _223  and  _224
REMARK  103  A    between atoms: _228  and  _230
REMARK  104  A    between atoms: _230  and  _231
REMARK  105  A    between atoms: _234  and  _236
REMARK  106  A    between atoms: _236  and  _237
REMARK  107  A    between atoms: _236  and  _239
REMARK  108  A    between atoms: _239  and  _240
REMARK  109  A    between atoms: _243  and  _245
REMARK  110  A    between atoms: _245  and  _246
REMARK  111  A    between atoms: _245  and  _248
REMARK  112  A    between atoms: _248  and  _249
REMARK  113  A    between atoms: _252  and  _254
REMARK  114  A    between atoms: _254  and  _255
REMARK  115  A    between atoms: _254  and  _257
REMARK  116  A    between atoms: _257  and  _258
REMARK  117  A    between atoms: _261  and  _263
REMARK  118  A    between atoms: _263  and  _264
REMARK  119  A    between atoms: _263  and  _266
REMARK  120  A    between atoms: _266  and  _267
REMARK  121  A    between atoms: _272  and  _274
REMARK  122  A    between atoms: _274  and  _275
REMARK  123  A    between atoms: _274  and  _277
REMARK  124  A    between atoms: _277  and  _278
REMARK  125  A    between atoms: _283  and  _285
REMARK  126  A    between atoms: _285  and  _286
REMARK  127  A    between atoms: _285  and  _288
REMARK  128  A    between atoms: _288  and  _289
REMARK  129  A    between atoms: _292  and  _294
REMARK  130  A    between atoms: _294  and  _295
REMARK  131  A    between atoms: _297  and  _299
REMARK  132  A    between atoms: _299  and  _300
REMARK  133  A    between atoms: _299  and  _302
REMARK  134  A    between atoms: _302  and  _303
REMARK  135  A    between atoms: _306  and  _308
REMARK  136  A    between atoms: _308  and  _309
REMARK  137  A    between atoms: _308  and  _311
REMARK  138  A    between atoms: _311  and  _312
REMARK  139  A    between atoms: _315  and  _317
REMARK  140  A    between atoms: _317  and  _318
REMARK  141  A    between atoms: _321  and  _323
REMARK  142  A    between atoms: _323  and  _324
REMARK  143  A    between atoms: _323  and  _326
REMARK  144  A    between atoms: _326  and  _327
REMARK  145  A    between atoms: _327  and  _328
REMARK  146  A    between atoms: _328  and  _329
REMARK  147  A    between atoms: _329  and  _330
REMARK  148  A    between atoms: _334  and  _336
REMARK  149  A    between atoms: _336  and  _337
REMARK  150  A    between atoms: _339  and  _341
REMARK  151  A    between atoms: _341  and  _342
REMARK  152  A    between atoms: _341  and  _344
REMARK  153  A    between atoms: _344  and  _345
REMARK  154  A    between atoms: _348  and  _350
REMARK  155  A    between atoms: _350  and  _351
REMARK  156  A    between atoms: _353  and  _355
REMARK  157  A    between atoms: _355  and  _356
REMARK  158  A    between atoms: _355  and  _358
REMARK  159  A    between atoms: _358  and  _359
REMARK  160  A    between atoms: _365  and  _367
REMARK  161  A    between atoms: _367  and  _368
REMARK  162  A    between atoms: _370  and  _372
REMARK  163  A    between atoms: _372  and  _373
REMARK  164  A    between atoms: _372  and  _375
REMARK  165  A    between atoms: _378  and  _380
REMARK  166  A    between atoms: _380  and  _381
REMARK  167  A    between atoms: _383  and  _385
REMARK  168  A    between atoms: _385  and  _386
REMARK  169  A    between atoms: _385  and  _388
REMARK  170  A    between atoms: _388  and  _389
REMARK  171  A    between atoms: _395  and  _397
REMARK  172  A    between atoms: _397  and  _398
REMARK  173  A    between atoms: _397  and  _400
REMARK  174  A    between atoms: _400  and  _401
REMARK  175  A    between atoms: _406  and  _407
REMARK  176  A    between atoms: _409  and  _411
REMARK  177  A    between atoms: _411  and  _412
REMARK  178  A    between atoms: _411  and  _414
REMARK  179  A    between atoms: _414  and  _415
REMARK  180  A    between atoms: _420  and  _421
REMARK  181  A    between atoms: _423  and  _425
REMARK  182  A    between atoms: _425  and  _426
REMARK  183  A    between atoms: _425  and  _428
REMARK  184  A    between atoms: _431  and  _433
REMARK  185  A    between atoms: _433  and  _434
REMARK  186  A    between atoms: _433  and  _436
REMARK  187  A    between atoms: _436  and  _437
REMARK  188  A    between atoms: _440  and  _442
REMARK  189  A    between atoms: _442  and  _443
REMARK  190  A    between atoms: _442  and  _445
REMARK  191  A    between atoms: _448  and  _450
REMARK  192  A    between atoms: _450  and  _451
REMARK  193  A    between atoms: _450  and  _453
REMARK  194  A    between atoms: _453  and  _454
REMARK  195  A    between atoms: _457  and  _459
REMARK  196  A    between atoms: _459  and  _460
REMARK  197  A    between atoms: _459  and  _462
REMARK  198  A    between atoms: _462  and  _463
REMARK  199  A    between atoms: _466  and  _468
REMARK  200  A    between atoms: _468  and  _469
REMARK  201  A    between atoms: _468  and  _471
REMARK  202  A    between atoms: _471  and  _472
REMARK  203  A    between atoms: _472  and  _473
REMARK  204  A    between atoms: _473  and  _474
REMARK  205  A    between atoms: _474  and  _475
REMARK  206  A    between atoms: _479  and  _481
REMARK  207  A    between atoms: _481  and  _482
REMARK  208  A    between atoms: _481  and  _484
REMARK  209  A    between atoms: _484  and  _485
REMARK  210  A    between atoms: _490  and  _492
REMARK  211  A    between atoms: _492  and  _493
REMARK  212  A    between atoms: _492  and  _495
REMARK  213  A    between atoms: _495  and  _496
REMARK  214  A    between atoms: _506  and  _508
REMARK  215  A    between atoms: _508  and  _509
REMARK  216  A    between atoms: _508  and  _511
REMARK  217  A    between atoms: _511  and  _512
REMARK  218  A    between atoms: _512  and  _513
REMARK  219  A    between atoms: _516  and  _518
REMARK  220  A    between atoms: _518  and  _519
REMARK  221  A    between atoms: _518  and  _521
REMARK  222  A    between atoms: _521  and  _522
REMARK  223  A    between atoms: _524  and  _526
REMARK  224  A    between atoms: _526  and  _527
REMARK  225  A    between atoms: _526  and  _529
REMARK  226  A    between atoms: _529  and  _530
REMARK  227  A    between atoms: _536  and  _538
REMARK  228  A    between atoms: _538  and  _539
REMARK  229  A    between atoms: _538  and  _541
REMARK  230  A    between atoms: _541  and  _542
REMARK  231  A    between atoms: _545  and  _547
REMARK  232  A    between atoms: _547  and  _548
REMARK  233  A    between atoms: _547  and  _550
REMARK  234  A    between atoms: _553  and  _555
REMARK  235  A    between atoms: _555  and  _556
REMARK  236  A    between atoms: _558  and  _560
REMARK  237  A    between atoms: _560  and  _561
REMARK  238  A    between atoms: _560  and  _563
REMARK  239  A    between atoms: _563  and  _564
REMARK  240  A    between atoms: _567  and  _569
REMARK  241  A    between atoms: _569  and  _570
REMARK  242  A    between atoms: _569  and  _572
REMARK  243  A    between atoms: _572  and  _573
REMARK  244  A    between atoms: _573  and  _574
REMARK  245  A    between atoms: _574  and  _575
REMARK  246  A    between atoms: _575  and  _576
REMARK  247  A    between atoms: _580  and  _582
REMARK  248  A    between atoms: _582  and  _583
REMARK  249  A    between atoms: _582  and  _585
REMARK                            x       y       z     vdW  Elec       q    Type
REMARK                         _______ _______ _______ _____ _____    ______ ____
ROOT
ATOM      1  CA  ASP A  12       6.947 -10.522 -32.024  0.00  0.00    +0.160 C 
ENDROOT
BRANCH   1   4
ATOM      2  C   ALA A  11       8.486 -11.063 -33.929  0.00  0.00    +0.241 C 
ATOM      3  O   ALA A  11       9.505 -10.957 -33.249  0.00  0.00    -0.273 OA
ATOM      4  N   ASP A  12       7.231 -10.870 -33.429  0.00  0.00    -0.297 N 
ATOM      5  H   ASP A  12       6.425 -10.975 -34.078  0.00  0.00    +0.150 HD
BRANCH   2   6
ATOM      6  CA  ALA A  11       8.623 -11.485 -35.397  0.00  0.00    +0.149 C 
ATOM      7  CB  ALA A  11       8.536 -10.284 -36.328  0.00  0.00    +0.031 C 
BRANCH   6  10
ATOM      8  C   LYS A  10       7.474 -13.719 -35.174  0.00  0.00    +0.241 C 
ATOM      9  O   LYS A  10       8.188 -14.126 -34.246  0.00  0.00    -0.273 OA
ATOM     10  N   ALA A  11       7.610 -12.491 -35.752  0.00  0.00    -0.297 N 
ATOM     11  H   ALA A  11       6.940 -12.245 -36.508  0.00  0.00    +0.150 HD
BRANCH   8  12
ATOM     12  CA  LYS A  10       6.324 -14.615 -35.693  0.00  0.00    +0.149 C 
BRANCH  12  15
ATOM     13  C   THR A   9       4.534 -13.110 -34.846  0.00  0.00    +0.243 C 
ATOM     14  O   THR A   9       4.943 -13.171 -33.676  0.00  0.00    -0.273 OA
ATOM     15  N   LYS A  10       5.125 -13.781 -35.866  0.00  0.00    -0.297 N 
ATOM     16  H   LYS A  10       4.710 -13.702 -36.816  0.00  0.00    +0.150 HD
BRANCH  13  17
ATOM     17  CA  THR A   9       3.324 -12.227 -35.183  0.00  0.00    +0.176 C 
BRANCH  17  20
ATOM     18  C   MET A   8       1.886 -12.471 -33.165  0.00  0.00    +0.241 C 
ATOM     19  O   MET A   8       1.450 -13.583 -33.476  0.00  0.00    -0.273 OA
ATOM     20  N   THR A   9       2.745 -11.770 -33.907  0.00  0.00    -0.295 N 
ATOM     21  H   THR A   9       3.027 -10.831 -33.559  0.00  0.00    +0.150 HD
BRANCH  18  22
ATOM     22  CA  MET A   8       1.455 -11.809 -31.885  0.00  0.00    +0.149 C 
BRANCH  22  25
ATOM     23  C   GLY A   7      -0.825 -11.109 -31.346  0.00  0.00    +0.243 C 
ATOM     24  O   GLY A   7      -0.512  -9.914 -31.317  0.00  0.00    -0.273 OA
ATOM     25  N   MET A   8       0.049 -12.071 -31.617  0.00  0.00    -0.297 N 
ATOM     26  H   MET A   8      -0.286 -13.055 -31.639  0.00  0.00    +0.150 HD
BRANCH  23  27
ATOM     27  CA  GLY A   7      -2.250 -11.552 -31.064  0.00  0.00    +0.176 C 
BRANCH  27  29
ATOM     28  C   ILE A   6      -3.533  -9.554 -31.674  0.00  0.00    +0.241 C 
ATOM     29  N   GLY A   7      -3.078 -10.391 -30.742  0.00  0.00    -0.295 N 
ATOM     30  H   GLY A   7      -3.321 -10.211 -29.747  0.00  0.00    +0.150 HD
ATOM     31  O   ILE A   6      -3.322  -9.715 -32.876  0.00  0.00    -0.273 OA
BRANCH  28  32
ATOM     32  CA  ILE A   6      -4.368  -8.311 -31.200  0.00  0.00    +0.149 C 
BRANCH  32  34
ATOM     33  C   GLY A   5      -5.980  -9.450 -29.682  0.00  0.00    +0.243 C 
ATOM     34  N   ILE A   6      -5.061  -8.507 -29.923  0.00  0.00    -0.297 N 
ATOM     35  H   ILE A   6      -4.820  -7.863 -29.143  0.00  0.00    +0.150 HD
ATOM     36  O   GLY A   5      -6.310 -10.295 -30.524  0.00  0.00    -0.273 OA
BRANCH  33  37
ATOM     37  CA  GLY A   5      -6.576  -9.454 -28.283  0.00  0.00    +0.176 C 
BRANCH  37  39
ATOM     38  C   THR A   4      -8.578 -10.882 -28.584  0.00  0.00    +0.243 C 
ATOM     39  N   GLY A   5      -7.386 -10.643 -28.016  0.00  0.00    -0.295 N 
ATOM     40  H   GLY A   5      -7.015 -11.346 -27.345  0.00  0.00    +0.150 HD
ATOM     41  O   THR A   4      -9.112 -10.102 -29.376  0.00  0.00    -0.273 OA
BRANCH  38  42
ATOM     42  CA  THR A   4      -9.258 -12.218 -28.202  0.00  0.00    +0.176 C 
BRANCH  42  44
ATOM     43  C   ASP A   3      -8.130 -13.470 -26.415  0.00  0.00    +0.241 C 
ATOM     44  N   THR A   4      -8.953 -12.505 -26.801  0.00  0.00    -0.295 N 
ATOM     45  H   THR A   4      -9.406 -11.921 -26.069  0.00  0.00    +0.150 HD
ATOM     46  O   ASP A   3      -7.559 -14.234 -27.203  0.00  0.00    -0.273 OA
BRANCH  43  47
ATOM     47  CA  ASP A   3      -7.876 -13.587 -24.914  0.00  0.00    +0.160 C 
BRANCH  47  50
ATOM     48  C   VAL A   2      -7.976 -15.679 -23.651  0.00  0.00    +0.241 C 
ATOM     49  O   VAL A   2      -8.865 -15.265 -22.915  0.00  0.00    -0.273 OA
ATOM     50  N   ASP A   3      -7.421 -14.941 -24.618  0.00  0.00    -0.297 N 
ATOM     51  H   ASP A   3      -6.641 -15.344 -25.176  0.00  0.00    +0.150 HD
BRANCH  48  52
ATOM     52  CA  VAL A   2      -7.496 -17.111 -23.504  0.00  0.00    +0.148 C 
BRANCH  52  54
ATOM     53  C   ILE A   1      -5.916 -17.604 -21.662  0.00  0.00    +0.238 C 
ATOM     54  N   VAL A   2      -7.171 -17.370 -22.095  0.00  0.00    -0.297 N 
ATOM     55  H   VAL A   2      -7.944 -17.373 -21.400  0.00  0.00    +0.150 HD
ATOM     56  O   ILE A   1      -4.934 -17.611 -22.403  0.00  0.00    -0.274 OA
BRANCH  53  57
ATOM     57  CA  ILE A   1      -5.732 -17.890 -20.165  0.00  0.00    +0.145 C 
BRANCH  57  58
ATOM     58  CB  ILE A   1      -4.835 -16.836 -19.438  0.00  0.00    +0.025 C 
ATOM     59  CG2 ILE A   1      -5.484 -15.432 -19.547  0.00  0.00    +0.002 C 
BRANCH  58  60
ATOM     60  CG1 ILE A   1      -4.650 -17.226 -17.949  0.00  0.00    +0.002 C 
ATOM     61  CD1 ILE A   1      -3.373 -16.882 -17.357  0.00  0.00    +0.000 C 
ENDBRANCH  58  60
ENDBRANCH  57  58
BRANCH  57  62
ATOM     62  N   ILE A   1      -5.204 -19.257 -20.098  0.00  0.00    -0.238 NA
ATOM     63  H   ILE A   1      -4.252 -19.432 -20.479  0.00  0.00    +0.142 HD
ENDBRANCH  57  62
ENDBRANCH  53  57
ENDBRANCH  52  54
BRANCH  52  64
ATOM     64  CB  VAL A   2      -8.592 -18.096 -24.059  0.00  0.00    +0.027 C 
ATOM     65  CG2 VAL A   2      -8.232 -19.559 -23.826  0.00  0.00    +0.002 C 
ATOM     66  CG1 VAL A   2      -8.884 -17.852 -25.550  0.00  0.00    +0.002 C 
ENDBRANCH  52  64
ENDBRANCH  48  52
ENDBRANCH  47  50
BRANCH  47  67
ATOM     67  CB  ASP A   3      -6.902 -12.502 -24.396  0.00  0.00    +0.143 C 
BRANCH  67  68
ATOM     68  CG  ASP A   3      -5.576 -12.391 -25.125  0.00  0.00    +0.367 C 
ATOM     69  OD2 ASP A   3      -4.532 -12.586 -24.480  0.00  0.00    -0.246 OA
ATOM     70  OD1 ASP A   3      -5.585 -12.056 -26.339  0.00  0.00    -0.246 OA
ENDBRANCH  67  68
ENDBRANCH  47  67
ENDBRANCH  43  47
ENDBRANCH  42  44
BRANCH  42  71
ATOM     71  CB  THR A   4     -10.763 -12.270 -28.452  0.00  0.00    +0.137 C 
ATOM     72  CG2 THR A   4     -11.335 -13.713 -28.401  0.00  0.00    +0.034 C 
BRANCH  71  73
ATOM     73  OG1 THR A   4     -11.393 -11.440 -27.475  0.00  0.00    -0.382 OA
ATOM     74  HG1 THR A   4     -12.373 -11.455 -27.614  0.00  0.00    +0.210 HD
ENDBRANCH  71  73
ENDBRANCH  42  71
ENDBRANCH  38  42
ENDBRANCH  37  39
ENDBRANCH  33  37
ENDBRANCH  32  34
BRANCH  32  75
ATOM     75  CB  ILE A   6      -3.514  -7.009 -31.111  0.00  0.00    +0.027 C 
ATOM     76  CG2 ILE A   6      -2.312  -7.134 -30.141  0.00  0.00    +0.002 C 
BRANCH  75  77
ATOM     77  CG1 ILE A   6      -3.103  -6.508 -32.523  0.00  0.00    +0.002 C 
ATOM     78  CD1 ILE A   6      -2.672  -4.987 -32.613  0.00  0.00    +0.000 C 
ENDBRANCH  75  77
ENDBRANCH  32  75
ENDBRANCH  28  32
ENDBRANCH  27  29
ENDBRANCH  23  27
ENDBRANCH  22  25
BRANCH  22  79
ATOM     79  CB  MET A   8       2.330 -12.303 -30.712  0.00  0.00    +0.041 C 
BRANCH  79  80
ATOM     80  CG  MET A   8       2.216 -11.443 -29.455  0.00  0.00    +0.060 C 
BRANCH  80  81
ATOM     81  SD  MET A   8       2.910 -12.275 -28.002  0.00  0.00    -0.139 S 
ATOM     82  CE  MET A   8       1.594 -13.391 -27.593  0.00  0.00    +0.069 C 
ENDBRANCH  80  81
ENDBRANCH  79  80
ENDBRANCH  22  79
ENDBRANCH  18  22
ENDBRANCH  17  20
BRANCH  17  83
ATOM     83  CB  THR A   9       3.781 -11.011 -36.028  0.00  0.00    +0.137 C 
ATOM     84  CG2 THR A   9       2.625 -10.060 -36.412  0.00  0.00    +0.034 C 
BRANCH  83  85
ATOM     85  OG1 THR A   9       4.807 -10.302 -35.327  0.00  0.00    -0.382 OA
ATOM     86  HG1 THR A   9       5.098  -9.525 -35.868  0.00  0.00    +0.210 HD
ENDBRANCH  83  85
ENDBRANCH  17  83
ENDBRANCH  13  17
ENDBRANCH  12  15
BRANCH  12  87
ATOM     87  CB  LYS A  10       6.716 -15.267 -37.031  0.00  0.00    +0.029 C 
BRANCH  87  88
ATOM     88  CG  LYS A  10       7.570 -16.517 -36.860  0.00  0.00    +0.000 C 
BRANCH  88  89
ATOM     89  CD  LYS A  10       8.129 -17.023 -38.185  0.00  0.00    -0.024 C 
BRANCH  89  90
ATOM     90  CE  LYS A  10       9.040 -18.208 -37.969  0.00  0.00    -0.086 C 
BRANCH  90  91
ATOM     91  NZ  LYS A  10       9.742 -18.608 -39.218  0.00  0.00    +0.380 N 
ATOM     92  HZ1 LYS A  10      10.356 -19.424 -39.023  0.00  0.00    -0.089 HD
ATOM     93  HZ2 LYS A  10      10.319 -17.813 -39.560  0.00  0.00    -0.089 HD
ATOM     94  HZ3 LYS A  10       9.040 -18.865 -39.941  0.00  0.00    -0.089 HD
ENDBRANCH  90  91
ENDBRANCH  89  90
ENDBRANCH  88  89
ENDBRANCH  87  88
ENDBRANCH  12  87
ENDBRANCH   8  12
ENDBRANCH   6  10
ENDBRANCH   2   6
ENDBRANCH   1   4
BRANCH   1  95
ATOM     95  C   ASP A  12       7.495 -11.603 -31.078  0.00  0.00    +0.241 C 
ATOM     96  O   ASP A  12       8.220 -11.282 -30.134  0.00  0.00    -0.273 OA
ATOM     97  N   LEU A  13       7.168 -12.881 -31.364  0.00  0.00    -0.297 N 
ATOM     98  H   LEU A  13       6.581 -13.052 -32.205  0.00  0.00    +0.150 HD
BRANCH  97  99
ATOM     99  CA  LEU A  13       7.581 -14.046 -30.574  0.00  0.00    +0.149 C 
BRANCH  99 100
ATOM    100  C   LEU A  13       9.077 -14.304 -30.536  0.00  0.00    +0.241 C 
ATOM    101  O   LEU A  13       9.581 -14.706 -29.488  0.00  0.00    -0.273 OA
ATOM    102  N   ILE A  14       9.775 -14.105 -31.666  0.00  0.00    -0.297 N 
ATOM    103  H   ILE A  14       9.273 -13.746 -32.503  0.00  0.00    +0.150 HD
BRANCH 102 104
ATOM    104  CA  ILE A  14      11.216 -14.372 -31.774  0.00  0.00    +0.149 C 
BRANCH 104 105
ATOM    105  C   ILE A  14      12.089 -13.161 -31.422  0.00  0.00    +0.241 C 
ATOM    106  O   ILE A  14      13.010 -13.304 -30.608  0.00  0.00    -0.273 OA
ATOM    107  N   ASN A  15      11.820 -11.996 -32.042  0.00  0.00    -0.297 N 
ATOM    108  H   ASN A  15      10.989 -11.944 -32.665  0.00  0.00    +0.150 HD
BRANCH 107 109
ATOM    109  CA  ASN A  15      12.645 -10.803 -31.878  0.00  0.00    +0.158 C 
BRANCH 109 110
ATOM    110  C   ASN A  15      12.110  -9.615 -31.090  0.00  0.00    +0.241 C 
ATOM    111  O   ASN A  15      12.728  -9.236 -30.094  0.00  0.00    -0.273 OA
ATOM    112  N   ASN A  16      11.018  -8.993 -31.585  0.00  0.00    -0.297 N 
ATOM    113  H   ASN A  16      10.556  -9.451 -32.397  0.00  0.00    +0.150 HD
BRANCH 112 114
ATOM    114  CA  ASN A  16      10.411  -7.751 -31.111  0.00  0.00    +0.158 C 
BRANCH 114 115
ATOM    115  C   ASN A  16      10.162  -7.656 -29.614  0.00  0.00    +0.241 C 
ATOM    116  O   ASN A  16      10.680  -6.725 -28.999  0.00  0.00    -0.273 OA
ATOM    117  N   LEU A  17       9.385  -8.581 -29.031  0.00  0.00    -0.297 N 
ATOM    118  H   LEU A  17       9.005  -9.365 -29.599  0.00  0.00    +0.150 HD
BRANCH 117 119
ATOM    119  CA  LEU A  17       9.064  -8.500 -27.600  0.00  0.00    +0.149 C 
BRANCH 119 120
ATOM    120  C   LEU A  17      10.281  -8.780 -26.716  0.00  0.00    +0.241 C 
ATOM    121  O   LEU A  17      10.403  -8.130 -25.677  0.00  0.00    -0.273 OA
ATOM    122  N   GLY A  18      11.176  -9.659 -27.176  0.00  0.00    -0.295 N 
ATOM    123  H   GLY A  18      10.965 -10.139 -28.074  0.00  0.00    +0.150 HD
BRANCH 122 124
ATOM    124  CA  GLY A  18      12.432  -9.993 -26.504  0.00  0.00    +0.176 C 
BRANCH 124 125
ATOM    125  C   GLY A  18      13.338  -8.772 -26.431  0.00  0.00    +0.243 C 
ATOM    126  O   GLY A  18      13.927  -8.506 -25.378  0.00  0.00    -0.273 OA
ATOM    127  N   THR A  19      13.419  -7.996 -27.548  0.00  0.00    -0.295 N 
ATOM    128  H   THR A  19      12.883  -8.306 -28.383  0.00  0.00    +0.150 HD
BRANCH 127 129
ATOM    129  CA  THR A  19      14.205  -6.750 -27.672  0.00  0.00    +0.176 C 
BRANCH 129 130
ATOM    130  C   THR A  19      13.675  -5.699 -26.682  0.00  0.00    +0.243 C 
ATOM    131  O   THR A  19      14.477  -5.080 -25.981  0.00  0.00    -0.273 OA
ATOM    132  N   ILE A  20      12.331  -5.523 -26.625  0.00  0.00    -0.297 N 
ATOM    133  H   ILE A  20      11.752  -6.096 -27.272  0.00  0.00    +0.150 HD
BRANCH 132 134
ATOM    134  CA  ILE A  20      11.616  -4.596 -25.732  0.00  0.00    +0.149 C 
BRANCH 134 135
ATOM    135  C   ILE A  20      11.866  -4.974 -24.259  0.00  0.00    +0.241 C 
ATOM    136  O   ILE A  20      12.182  -4.089 -23.459  0.00  0.00    -0.273 OA
ATOM    137  N   ALA A  21      11.733  -6.281 -23.932  0.00  0.00    -0.297 N 
ATOM    138  H   ALA A  21      11.481  -6.936 -24.700  0.00  0.00    +0.150 HD
BRANCH 137 139
ATOM    139  CA  ALA A  21      11.911  -6.858 -22.598  0.00  0.00    +0.149 C 
ATOM    140  CB  ALA A  21      11.448  -8.301 -22.577  0.00  0.00    +0.031 C 
BRANCH 139 141
ATOM    141  C   ALA A  21      13.335  -6.741 -22.033  0.00  0.00    +0.241 C 
ATOM    142  O   ALA A  21      13.467  -6.622 -20.814  0.00  0.00    -0.273 OA
ATOM    143  N   LYS A  22      14.379  -6.765 -22.912  0.00  0.00    -0.298 N 
ATOM    144  H   LYS A  22      14.139  -6.858 -23.920  0.00  0.00    +0.150 HD
BRANCH 143 145
ATOM    145  CA  LYS A  22      15.816  -6.672 -22.578  0.00  0.00    +0.137 C 
BRANCH 145 146
ATOM    146  C   LYS A  22      16.139  -5.531 -21.590  0.00  0.00    +0.227 C 
ATOM    147  O   LYS A  22      16.773  -5.787 -20.565  0.00  0.00    -0.286 OA
ENDBRANCH 145 146
BRANCH 145 148
ATOM    148  CB  LYS A  22      16.667  -6.578 -23.869  0.00  0.00    +0.028 C 
BRANCH 148 149
ATOM    149  CG  LYS A  22      18.140  -6.933 -23.695  0.00  0.00    -0.000 C 
BRANCH 149 150
ATOM    150  CD  LYS A  22      18.895  -6.829 -25.017  0.00  0.00    -0.024 C 
BRANCH 150 151
ATOM    151  CE  LYS A  22      20.355  -7.178 -24.857  0.00  0.00    -0.086 C 
BRANCH 151 152
ATOM    152  NZ  LYS A  22      21.092  -7.091 -26.146  0.00  0.00    +0.380 N 
ATOM    153  HZ1 LYS A  22      22.090  -7.338 -25.991  0.00  0.00    -0.089 HD
ATOM    154  HZ2 LYS A  22      21.028  -6.121 -26.516  0.00  0.00    -0.089 HD
ATOM    155  HZ3 LYS A  22      20.672  -7.753 -26.829  0.00  0.00    -0.089 HD
ENDBRANCH 151 152
ENDBRANCH 150 151
ENDBRANCH 149 150
ENDBRANCH 148 149
ENDBRANCH 145 148
ENDBRANCH 143 145
ENDBRANCH 139 141
ENDBRANCH 137 139
ENDBRANCH 134 135
BRANCH 134 156
ATOM    156  CB  ILE A  20      10.090  -4.502 -26.120  0.00  0.00    +0.027 C 
ATOM    157  CG2 ILE A  20       9.183  -3.861 -25.042  0.00  0.00    +0.002 C 
BRANCH 156 158
ATOM    158  CG1 ILE A  20       9.863  -3.818 -27.512  0.00  0.00    +0.002 C 
ATOM    159  CD1 ILE A  20      10.480  -2.397 -27.797  0.00  0.00    +0.000 C 
ENDBRANCH 156 158
ENDBRANCH 134 156
ENDBRANCH 132 134
ENDBRANCH 129 130
BRANCH 129 160
ATOM    160  CB  THR A  19      14.258  -6.268 -29.142  0.00  0.00    +0.137 C 
ATOM    161  CG2 THR A  19      15.065  -4.962 -29.330  0.00  0.00    +0.034 C 
BRANCH 160 162
ATOM    162  OG1 THR A  19      14.852  -7.293 -29.932  0.00  0.00    -0.382 OA
ATOM    163  HG1 THR A  19      14.307  -8.117 -29.865  0.00  0.00    +0.210 HD
ENDBRANCH 160 162
ENDBRANCH 129 160
ENDBRANCH 127 129
ENDBRANCH 124 125
ENDBRANCH 122 124
ENDBRANCH 119 120
BRANCH 119 164
ATOM    164  CB  LEU A  17       7.847  -9.345 -27.230  0.00  0.00    +0.029 C 
BRANCH 164 165
ATOM    165  CG  LEU A  17       6.548  -8.854 -27.937  0.00  0.00    +0.002 C 
ATOM    166  CD2 LEU A  17       6.011  -7.532 -27.357  0.00  0.00    +0.000 C 
ATOM    167  CD1 LEU A  17       5.502  -9.902 -27.937  0.00  0.00    +0.000 C 
ENDBRANCH 164 165
ENDBRANCH 119 164
ENDBRANCH 117 119
ENDBRANCH 114 115
BRANCH 114 168
ATOM    168  CB  ASN A  16       9.111  -7.428 -31.865  0.00  0.00    +0.114 C 
BRANCH 168 169
ATOM    169  CG  ASN A  16       9.204  -7.304 -33.374  0.00  0.00    +0.222 C 
ATOM    170  OD1 ASN A  16      10.278  -7.167 -33.972  0.00  0.00    -0.275 OA
ATOM    171  ND2 ASN A  16       8.047  -7.320 -34.022  0.00  0.00    -0.329 N 
ATOM    172 HD21 ASN A  16       7.158  -7.437 -33.496  0.00  0.00    +0.145 HD
ATOM    173 HD22 ASN A  16       8.029  -7.216 -35.057  0.00  0.00    +0.145 HD
ENDBRANCH 168 169
ENDBRANCH 114 168
ENDBRANCH 112 114
ENDBRANCH 109 110
BRANCH 109 174
ATOM    174  CB  ASN A  15      13.017 -10.262 -33.272  0.00  0.00    +0.114 C 
BRANCH 174 175
ATOM    175  CG  ASN A  15      13.840 -11.176 -34.126  0.00  0.00    +0.222 C 
ATOM    176  ND2 ASN A  15      15.114 -11.249 -33.815  0.00  0.00    -0.329 N 
ATOM    177 HD21 ASN A  15      15.482 -10.716 -33.001  0.00  0.00    +0.145 HD
ATOM    178 HD22 ASN A  15      15.755 -11.839 -34.383  0.00  0.00    +0.145 HD
ATOM    179  OD1 ASN A  15      13.350 -11.788 -35.083  0.00  0.00    -0.275 OA
ENDBRANCH 174 175
ENDBRANCH 109 174
ENDBRANCH 107 109
ENDBRANCH 104 105
BRANCH 104 180
ATOM    180  CB  ILE A  14      11.579 -14.954 -33.191  0.00  0.00    +0.027 C 
ATOM    181  CG2 ILE A  14      13.115 -15.105 -33.394  0.00  0.00    +0.002 C 
BRANCH 180 182
ATOM    182  CG1 ILE A  14      10.834 -16.287 -33.471  0.00  0.00    +0.002 C 
ATOM    183  CD1 ILE A  14      10.727 -16.667 -34.949  0.00  0.00    +0.000 C 
ENDBRANCH 180 182
ENDBRANCH 104 180
ENDBRANCH 102 104
ENDBRANCH  99 100
BRANCH  99 184
ATOM    184  CB  LEU A  13       6.883 -15.323 -31.066  0.00  0.00    +0.029 C 
BRANCH 184 185
ATOM    185  CG  LEU A  13       5.363 -15.403 -30.969  0.00  0.00    +0.002 C 
ATOM    186  CD2 LEU A  13       4.879 -15.441 -29.501  0.00  0.00    +0.000 C 
ATOM    187  CD1 LEU A  13       4.882 -16.620 -31.699  0.00  0.00    +0.000 C 
ENDBRANCH 184 185
ENDBRANCH  99 184
ENDBRANCH  97  99
ENDBRANCH   1  95
BRANCH   1 188
ATOM    188  CB  ASP A  12       5.429 -10.398 -31.789  0.00  0.00    +0.143 C 
BRANCH 188 189
ATOM    189  CG  ASP A  12       4.781  -9.147 -32.323  0.00  0.00    +0.367 C 
ATOM    190  OD2 ASP A  12       5.482  -8.109 -32.423  0.00  0.00    -0.246 OA
ATOM    191  OD1 ASP A  12       3.574  -9.200 -32.644  0.00  0.00    -0.246 OA
ENDBRANCH 188 189
ENDBRANCH   1 188
TORSDOF 84
REMARK  Name = ../refined-set-2016/4o05/4o05_pocket.pdb
REMARK  249 active torsions:
REMARK  status: ('A' for Active; 'I' for Inactive)
REMARK    1  A    between atoms: _1  and  _3
REMARK    2  A    between atoms: _3  and  _4
REMARK    3  A    between atoms: _3  and  _6
REMARK    4  A    between atoms: _6  and  _7
REMARK    5  A    between atoms: _13  and  _15
REMARK    6  A    between atoms: _15  and  _16
REMARK    7  A    between atoms: _15  and  _18
REMARK    8  A    between atoms: _18  and  _19
REMARK    9  A    between atoms: _19  and  _20
REMARK   10  A    between atoms: _25  and  _27
REMARK   11  A    between atoms: _27  and  _28
REMARK   12  A    between atoms: _27  and  _30
REMARK   13  A    between atoms: _30  and  _31
REMARK   14  A    between atoms: _34  and  _36
REMARK   15  A    between atoms: _36  and  _37
REMARK   16  A    between atoms: _36  and  _39
REMARK   17  A    between atoms: _39  and  _40
REMARK   18  A    between atoms: _40  and  _41
REMARK   19  A    between atoms: _44  and  _46
REMARK   20  A    between atoms: _46  and  _47
REMARK   21  A    between atoms: _46  and  _49
REMARK   22  A    between atoms: _49  and  _50
REMARK   23  A    between atoms: _53  and  _55
REMARK   24  A    between atoms: _55  and  _56
REMARK   25  A    between atoms: _55  and  _58
REMARK   26  A    between atoms: _58  and  _59
REMARK   27  A    between atoms: _62  and  _64
REMARK   28  A    between atoms: _64  and  _65
REMARK   29  A    between atoms: _64  and  _67
REMARK   30  A    between atoms: _67  and  _68
REMARK   31  A    between atoms: _70  and  _72
REMARK   32  A    between atoms: _72  and  _73
REMARK   33  A    between atoms: _72  and  _75
REMARK   34  A    between atoms: _75  and  _76
REMARK   35  A    between atoms: _81  and  _83
REMARK   36  A    between atoms: _83  and  _84
REMARK   37  A    between atoms: _83  and  _86
REMARK   38  A    between atoms: _86  and  _87
REMARK   39  A    between atoms: _89  and  _91
REMARK   40  A    between atoms: _91  and  _92
REMARK   41  A    between atoms: _91  and  _94
REMARK   42  A    between atoms: _94  and  _95
REMARK   43  A    between atoms: _97  and  _99
REMARK   44  A    between atoms: _99  and  _100
REMARK   45  A    between atoms: _99  and  _102
REMARK   46  A    between atoms: _102  and  _103
REMARK   47  A    between atoms: _106  and  _108
REMARK   48  A    between atoms: _108  and  _109
REMARK   49  A    between atoms: _112  and  _114
REMARK   50  A    between atoms: _114  and  _115
REMARK   51  A    between atoms: _114  and  _117
REMARK   52  A    between atoms: _117  and  _118
REMARK   53  A    between atoms: _121  and  _123
REMARK   54  A    between atoms: _123  and  _124
REMARK   55  A    between atoms: _123  and  _126
REMARK   56  A    between atoms: _126  and  _127
REMARK   57  A    between atoms: _127  and  _128
REMARK   58  A    between atoms: _128  and  _129
REMARK   59  A    between atoms: _129  and  _130
REMARK   60  A    between atoms: _134  and  _136
REMARK   61  A    between atoms: _136  and  _137
REMARK   62  A    between atoms: _136  and  _139
REMARK   63  A    between atoms: _139  and  _140
REMARK   64  A    between atoms: _143  and  _145
REMARK   65  A    between atoms: _145  and  _146
REMARK   66  A    between atoms: _145  and  _148
REMARK   67  A    between atoms: _148  and  _149
REMARK   68  A    between atoms: _152  and  _154
REMARK   69  A    between atoms: _154  and  _155
REMARK   70  A    between atoms: _154  and  _157
REMARK   71  A    between atoms: _160  and  _162
REMARK   72  A    between atoms: _162  and  _163
REMARK   73  A    between atoms: _162  and  _165
REMARK   74  A    between atoms: _165  and  _166
REMARK   75  A    between atoms: _169  and  _171
REMARK   76  A    between atoms: _171  and  _172
REMARK   77  A    between atoms: _171  and  _174
REMARK   78  A    between atoms: _174  and  _175
REMARK   79  A    between atoms: _178  and  _180
REMARK   80  A    between atoms: _180  and  _181
REMARK   81  A    between atoms: _183  and  _185
REMARK   82  A    between atoms: _185  and  _186
REMARK   83  A    between atoms: _185  and  _188
REMARK   84  A    between atoms: _188  and  _189
REMARK   85  A    between atoms: _192  and  _194
REMARK   86  A    between atoms: _194  and  _195
REMARK   87  A    between atoms: _197  and  _199
REMARK   88  A    between atoms: _199  and  _200
REMARK   89  A    between atoms: _199  and  _202
REMARK   90  A    between atoms: _202  and  _203
REMARK   91  A    between atoms: _203  and  _204
REMARK   92  A    between atoms: _206  and  _208
REMARK   93  A    between atoms: _208  and  _209
REMARK   94  A    between atoms: _208  and  _211
REMARK   95  A    between atoms: _211  and  _212
REMARK   96  A    between atoms: _215  and  _217
REMARK   97  A    between atoms: _217  and  _218
REMARK   98  A    between atoms: _217  and  _220
REMARK   99  A    between atoms: _220  and  _221
REMARK  100  A    between atoms: _221  and  _222
REMARK  101  A    between atoms: _222  and  _223
REMARK  102  A    between atoms: _223  and  _224
REMARK  103  A    between atoms: _228  and  _230
REMARK  104  A    between atoms: _230  and  _231
REMARK  105  A    between atoms: _234  and  _236
REMARK  106  A    between atoms: _236  and  _237
REMARK  107  A    between atoms: _236  and  _239
REMARK  108  A    between atoms: _239  and  _240
REMARK  109  A    between atoms: _243  and  _245
REMARK  110  A    between atoms: _245  and  _246
REMARK  111  A    between atoms: _245  and  _248
REMARK  112  A    between atoms: _248  and  _249
REMARK  113  A    between atoms: _252  and  _254
REMARK  114  A    between atoms: _254  and  _255
REMARK  115  A    between atoms: _254  and  _257
REMARK  116  A    between atoms: _257  and  _258
REMARK  117  A    between atoms: _261  and  _263
REMARK  118  A    between atoms: _263  and  _264
REMARK  119  A    between atoms: _263  and  _266
REMARK  120  A    between atoms: _266  and  _267
REMARK  121  A    between atoms: _272  and  _274
REMARK  122  A    between atoms: _274  and  _275
REMARK  123  A    between atoms: _274  and  _277
REMARK  124  A    between atoms: _277  and  _278
REMARK  125  A    between atoms: _283  and  _285
REMARK  126  A    between atoms: _285  and  _286
REMARK  127  A    between atoms: _285  and  _288
REMARK  128  A    between atoms: _288  and  _289
REMARK  129  A    between atoms: _292  and  _294
REMARK  130  A    between atoms: _294  and  _295
REMARK  131  A    between atoms: _297  and  _299
REMARK  132  A    between atoms: _299  and  _300
REMARK  133  A    between atoms: _299  and  _302
REMARK  134  A    between atoms: _302  and  _303
REMARK  135  A    between atoms: _306  and  _308
REMARK  136  A    between atoms: _308  and  _309
REMARK  137  A    between atoms: _308  and  _311
REMARK  138  A    between atoms: _311  and  _312
REMARK  139  A    between atoms: _315  and  _317
REMARK  140  A    between atoms: _317  and  _318
REMARK  141  A    between atoms: _321  and  _323
REMARK  142  A    between atoms: _323  and  _324
REMARK  143  A    between atoms: _323  and  _326
REMARK  144  A    between atoms: _326  and  _327
REMARK  145  A    between atoms: _327  and  _328
REMARK  146  A    between atoms: _328  and  _329
REMARK  147  A    between atoms: _329  and  _330
REMARK  148  A    between atoms: _334  and  _336
REMARK  149  A    between atoms: _336  and  _337
REMARK  150  A    between atoms: _339  and  _341
REMARK  151  A    between atoms: _341  and  _342
REMARK  152  A    between atoms: _341  and  _344
REMARK  153  A    between atoms: _344  and  _345
REMARK  154  A    between atoms: _348  and  _350
REMARK  155  A    between atoms: _350  and  _351
REMARK  156  A    between atoms: _353  and  _355
REMARK  157  A    between atoms: _355  and  _356
REMARK  158  A    between atoms: _355  and  _358
REMARK  159  A    between atoms: _358  and  _359
REMARK  160  A    between atoms: _365  and  _367
REMARK  161  A    between atoms: _367  and  _368
REMARK  162  A    between atoms: _370  and  _372
REMARK  163  A    between atoms: _372  and  _373
REMARK  164  A    between atoms: _372  and  _375
REMARK  165  A    between atoms: _378  and  _380
REMARK  166  A    between atoms: _380  and  _381
REMARK  167  A    between atoms: _383  and  _385
REMARK  168  A    between atoms: _385  and  _386
REMARK  169  A    between atoms: _385  and  _388
REMARK  170  A    between atoms: _388  and  _389
REMARK  171  A    between atoms: _395  and  _397
REMARK  172  A    between atoms: _397  and  _398
REMARK  173  A    between atoms: _397  and  _400
REMARK  174  A    between atoms: _400  and  _401
REMARK  175  A    between atoms: _406  and  _407
REMARK  176  A    between atoms: _409  and  _411
REMARK  177  A    between atoms: _411  and  _412
REMARK  178  A    between atoms: _411  and  _414
REMARK  179  A    between atoms: _414  and  _415
REMARK  180  A    between atoms: _420  and  _421
REMARK  181  A    between atoms: _423  and  _425
REMARK  182  A    between atoms: _425  and  _426
REMARK  183  A    between atoms: _425  and  _428
REMARK  184  A    between atoms: _431  and  _433
REMARK  185  A    between atoms: _433  and  _434
REMARK  186  A    between atoms: _433  and  _436
REMARK  187  A    between atoms: _436  and  _437
REMARK  188  A    between atoms: _440  and  _442
REMARK  189  A    between atoms: _442  and  _443
REMARK  190  A    between atoms: _442  and  _445
REMARK  191  A    between atoms: _448  and  _450
REMARK  192  A    between atoms: _450  and  _451
REMARK  193  A    between atoms: _450  and  _453
REMARK  194  A    between atoms: _453  and  _454
REMARK  195  A    between atoms: _457  and  _459
REMARK  196  A    between atoms: _459  and  _460
REMARK  197  A    between atoms: _459  and  _462
REMARK  198  A    between atoms: _462  and  _463
REMARK  199  A    between atoms: _466  and  _468
REMARK  200  A    between atoms: _468  and  _469
REMARK  201  A    between atoms: _468  and  _471
REMARK  202  A    between atoms: _471  and  _472
REMARK  203  A    between atoms: _472  and  _473
REMARK  204  A    between atoms: _473  and  _474
REMARK  205  A    between atoms: _474  and  _475
REMARK  206  A    between atoms: _479  and  _481
REMARK  207  A    between atoms: _481  and  _482
REMARK  208  A    between atoms: _481  and  _484
REMARK  209  A    between atoms: _484  and  _485
REMARK  210  A    between atoms: _490  and  _492
REMARK  211  A    between atoms: _492  and  _493
REMARK  212  A    between atoms: _492  and  _495
REMARK  213  A    between atoms: _495  and  _496
REMARK  214  A    between atoms: _506  and  _508
REMARK  215  A    between atoms: _508  and  _509
REMARK  216  A    between atoms: _508  and  _511
REMARK  217  A    between atoms: _511  and  _512
REMARK  218  A    between atoms: _512  and  _513
REMARK  219  A    between atoms: _516  and  _518
REMARK  220  A    between atoms: _518  and  _519
REMARK  221  A    between atoms: _518  and  _521
REMARK  222  A    between atoms: _521  and  _522
REMARK  223  A    between atoms: _524  and  _526
REMARK  224  A    between atoms: _526  and  _527
REMARK  225  A    between atoms: _526  and  _529
REMARK  226  A    between atoms: _529  and  _530
REMARK  227  A    between atoms: _536  and  _538
REMARK  228  A    between atoms: _538  and  _539
REMARK  229  A    between atoms: _538  and  _541
REMARK  230  A    between atoms: _541  and  _542
REMARK  231  A    between atoms: _545  and  _547
REMARK  232  A    between atoms: _547  and  _548
REMARK  233  A    between atoms: _547  and  _550
REMARK  234  A    between atoms: _553  and  _555
REMARK  235  A    between atoms: _555  and  _556
REMARK  236  A    between atoms: _558  and  _560
REMARK  237  A    between atoms: _560  and  _561
REMARK  238  A    between atoms: _560  and  _563
REMARK  239  A    between atoms: _563  and  _564
REMARK  240  A    between atoms: _567  and  _569
REMARK  241  A    between atoms: _569  and  _570
REMARK  242  A    between atoms: _569  and  _572
REMARK  243  A    between atoms: _572  and  _573
REMARK  244  A    between atoms: _573  and  _574
REMARK  245  A    between atoms: _574  and  _575
REMARK  246  A    between atoms: _575  and  _576
REMARK  247  A    between atoms: _580  and  _582
REMARK  248  A    between atoms: _582  and  _583
REMARK  249  A    between atoms: _582  and  _585
REMARK                            x       y       z     vdW  Elec       q    Type
REMARK                         _______ _______ _______ _____ _____    ______ ____
ROOT
ATOM      1  C   GLY A   1      13.592  -4.826 -17.550  0.00  0.00    +0.240 C 
ATOM      2  O   GLY A   1      13.564  -4.631 -16.334  0.00  0.00    -0.274 OA
ATOM      3  N   THR A   2      14.072  -5.959 -18.111  0.00  0.00    -0.296 N 
ATOM      4  H   THR A   2      14.028  -6.028 -19.148  0.00  0.00    +0.150 HD
ENDROOT
BRANCH   1   5
ATOM      5  CA  GLY A   1      13.082  -3.757 -18.500  0.00  0.00    +0.169 C 
BRANCH   5   6
ATOM      6  N   GLY A   1      13.905  -3.611 -19.701  0.00  0.00    -0.236 NA
ATOM      7  H   GLY A   1      13.482  -3.879 -20.612  0.00  0.00    +0.142 HD
ENDBRANCH   5   6
ENDBRANCH   1   5
BRANCH   3   8
ATOM      8  CA  THR A   2      14.651  -7.102 -17.389  0.00  0.00    +0.164 C 
BRANCH   8   9
ATOM      9  C   THR A   2      15.893  -6.614 -16.610  0.00  0.00    +0.229 C 
ATOM     10  O   THR A   2      16.002  -6.911 -15.413  0.00  0.00    -0.286 OA
ENDBRANCH   8   9
BRANCH   8  11
ATOM     11  CB  THR A   2      14.943  -8.228 -18.381  0.00  0.00    +0.136 C 
ATOM     12  CG2 THR A   2      15.642  -9.366 -17.767  0.00  0.00    +0.034 C 
BRANCH  11  13
ATOM     13  OG1 THR A   2      13.706  -8.694 -18.899  0.00  0.00    -0.382 OA
ATOM     14  HG1 THR A   2      13.239  -7.950 -19.356  0.00  0.00    +0.210 HD
ENDBRANCH  11  13
ENDBRANCH   8  11
ENDBRANCH   3   8
TORSDOF 6
REMARK  Name = ../refined-set-2016/4o05/4o05_pocket.pdb
REMARK  249 active torsions:
REMARK  status: ('A' for Active; 'I' for Inactive)
REMARK    1  A    between atoms: _1  and  _3
REMARK    2  A    between atoms: _3  and  _4
REMARK    3  A    between atoms: _3  and  _6
REMARK    4  A    between atoms: _6  and  _7
REMARK    5  A    between atoms: _13  and  _15
REMARK    6  A    between atoms: _15  and  _16
REMARK    7  A    between atoms: _15  and  _18
REMARK    8  A    between atoms: _18  and  _19
REMARK    9  A    between atoms: _19  and  _20
REMARK   10  A    between atoms: _25  and  _27
REMARK   11  A    between atoms: _27  and  _28
REMARK   12  A    between atoms: _27  and  _30
REMARK   13  A    between atoms: _30  and  _31
REMARK   14  A    between atoms: _34  and  _36
REMARK   15  A    between atoms: _36  and  _37
REMARK   16  A    between atoms: _36  and  _39
REMARK   17  A    between atoms: _39  and  _40
REMARK   18  A    between atoms: _40  and  _41
REMARK   19  A    between atoms: _44  and  _46
REMARK   20  A    between atoms: _46  and  _47
REMARK   21  A    between atoms: _46  and  _49
REMARK   22  A    between atoms: _49  and  _50
REMARK   23  A    between atoms: _53  and  _55
REMARK   24  A    between atoms: _55  and  _56
REMARK   25  A    between atoms: _55  and  _58
REMARK   26  A    between atoms: _58  and  _59
REMARK   27  A    between atoms: _62  and  _64
REMARK   28  A    between atoms: _64  and  _65
REMARK   29  A    between atoms: _64  and  _67
REMARK   30  A    between atoms: _67  and  _68
REMARK   31  A    between atoms: _70  and  _72
REMARK   32  A    between atoms: _72  and  _73
REMARK   33  A    between atoms: _72  and  _75
REMARK   34  A    between atoms: _75  and  _76
REMARK   35  A    between atoms: _81  and  _83
REMARK   36  A    between atoms: _83  and  _84
REMARK   37  A    between atoms: _83  and  _86
REMARK   38  A    between atoms: _86  and  _87
REMARK   39  A    between atoms: _89  and  _91
REMARK   40  A    between atoms: _91  and  _92
REMARK   41  A    between atoms: _91  and  _94
REMARK   42  A    between atoms: _94  and  _95
REMARK   43  A    between atoms: _97  and  _99
REMARK   44  A    between atoms: _99  and  _100
REMARK   45  A    between atoms: _99  and  _102
REMARK   46  A    between atoms: _102  and  _103
REMARK   47  A    between atoms: _106  and  _108
REMARK   48  A    between atoms: _108  and  _109
REMARK   49  A    between atoms: _112  and  _114
REMARK   50  A    between atoms: _114  and  _115
REMARK   51  A    between atoms: _114  and  _117
REMARK   52  A    between atoms: _117  and  _118
REMARK   53  A    between atoms: _121  and  _123
REMARK   54  A    between atoms: _123  and  _124
REMARK   55  A    between atoms: _123  and  _126
REMARK   56  A    between atoms: _126  and  _127
REMARK   57  A    between atoms: _127  and  _128
REMARK   58  A    between atoms: _128  and  _129
REMARK   59  A    between atoms: _129  and  _130
REMARK   60  A    between atoms: _134  and  _136
REMARK   61  A    between atoms: _136  and  _137
REMARK   62  A    between atoms: _136  and  _139
REMARK   63  A    between atoms: _139  and  _140
REMARK   64  A    between atoms: _143  and  _145
REMARK   65  A    between atoms: _145  and  _146
REMARK   66  A    between atoms: _145  and  _148
REMARK   67  A    between atoms: _148  and  _149
REMARK   68  A    between atoms: _152  and  _154
REMARK   69  A    between atoms: _154  and  _155
REMARK   70  A    between atoms: _154  and  _157
REMARK   71  A    between atoms: _160  and  _162
REMARK   72  A    between atoms: _162  and  _163
REMARK   73  A    between atoms: _162  and  _165
REMARK   74  A    between atoms: _165  and  _166
REMARK   75  A    between atoms: _169  and  _171
REMARK   76  A    between atoms: _171  and  _172
REMARK   77  A    between atoms: _171  and  _174
REMARK   78  A    between atoms: _174  and  _175
REMARK   79  A    between atoms: _178  and  _180
REMARK   80  A    between atoms: _180  and  _181
REMARK   81  A    between atoms: _183  and  _185
REMARK   82  A    between atoms: _185  and  _186
REMARK   83  A    between atoms: _185  and  _188
REMARK   84  A    between atoms: _188  and  _189
REMARK   85  A    between atoms: _192  and  _194
REMARK   86  A    between atoms: _194  and  _195
REMARK   87  A    between atoms: _197  and  _199
REMARK   88  A    between atoms: _199  and  _200
REMARK   89  A    between atoms: _199  and  _202
REMARK   90  A    between atoms: _202  and  _203
REMARK   91  A    between atoms: _203  and  _204
REMARK   92  A    between atoms: _206  and  _208
REMARK   93  A    between atoms: _208  and  _209
REMARK   94  A    between atoms: _208  and  _211
REMARK   95  A    between atoms: _211  and  _212
REMARK   96  A    between atoms: _215  and  _217
REMARK   97  A    between atoms: _217  and  _218
REMARK   98  A    between atoms: _217  and  _220
REMARK   99  A    between atoms: _220  and  _221
REMARK  100  A    between atoms: _221  and  _222
REMARK  101  A    between atoms: _222  and  _223
REMARK  102  A    between atoms: _223  and  _224
REMARK  103  A    between atoms: _228  and  _230
REMARK  104  A    between atoms: _230  and  _231
REMARK  105  A    between atoms: _234  and  _236
REMARK  106  A    between atoms: _236  and  _237
REMARK  107  A    between atoms: _236  and  _239
REMARK  108  A    between atoms: _239  and  _240
REMARK  109  A    between atoms: _243  and  _245
REMARK  110  A    between atoms: _245  and  _246
REMARK  111  A    between atoms: _245  and  _248
REMARK  112  A    between atoms: _248  and  _249
REMARK  113  A    between atoms: _252  and  _254
REMARK  114  A    between atoms: _254  and  _255
REMARK  115  A    between atoms: _254  and  _257
REMARK  116  A    between atoms: _257  and  _258
REMARK  117  A    between atoms: _261  and  _263
REMARK  118  A    between atoms: _263  and  _264
REMARK  119  A    between atoms: _263  and  _266
REMARK  120  A    between atoms: _266  and  _267
REMARK  121  A    between atoms: _272  and  _274
REMARK  122  A    between atoms: _274  and  _275
REMARK  123  A    between atoms: _274  and  _277
REMARK  124  A    between atoms: _277  and  _278
REMARK  125  A    between atoms: _283  and  _285
REMARK  126  A    between atoms: _285  and  _286
REMARK  127  A    between atoms: _285  and  _288
REMARK  128  A    between atoms: _288  and  _289
REMARK  129  A    between atoms: _292  and  _294
REMARK  130  A    between atoms: _294  and  _295
REMARK  131  A    between atoms: _297  and  _299
REMARK  132  A    between atoms: _299  and  _300
REMARK  133  A    between atoms: _299  and  _302
REMARK  134  A    between atoms: _302  and  _303
REMARK  135  A    between atoms: _306  and  _308
REMARK  136  A    between atoms: _308  and  _309
REMARK  137  A    between atoms: _308  and  _311
REMARK  138  A    between atoms: _311  and  _312
REMARK  139  A    between atoms: _315  and  _317
REMARK  140  A    between atoms: _317  and  _318
REMARK  141  A    between atoms: _321  and  _323
REMARK  142  A    between atoms: _323  and  _324
REMARK  143  A    between atoms: _323  and  _326
REMARK  144  A    between atoms: _326  and  _327
REMARK  145  A    between atoms: _327  and  _328
REMARK  146  A    between atoms: _328  and  _329
REMARK  147  A    between atoms: _329  and  _330
REMARK  148  A    between atoms: _334  and  _336
REMARK  149  A    between atoms: _336  and  _337
REMARK  150  A    between atoms: _339  and  _341
REMARK  151  A    between atoms: _341  and  _342
REMARK  152  A    between atoms: _341  and  _344
REMARK  153  A    between atoms: _344  and  _345
REMARK  154  A    between atoms: _348  and  _350
REMARK  155  A    between atoms: _350  and  _351
REMARK  156  A    between atoms: _353  and  _355
REMARK  157  A    between atoms: _355  and  _356
REMARK  158  A    between atoms: _355  and  _358
REMARK  159  A    between atoms: _358  and  _359
REMARK  160  A    between atoms: _365  and  _367
REMARK  161  A    between atoms: _367  and  _368
REMARK  162  A    between atoms: _370  and  _372
REMARK  163  A    between atoms: _372  and  _373
REMARK  164  A    between atoms: _372  and  _375
REMARK  165  A    between atoms: _378  and  _380
REMARK  166  A    between atoms: _380  and  _381
REMARK  167  A    between atoms: _383  and  _385
REMARK  168  A    between atoms: _385  and  _386
REMARK  169  A    between atoms: _385  and  _388
REMARK  170  A    between atoms: _388  and  _389
REMARK  171  A    between atoms: _395  and  _397
REMARK  172  A    between atoms: _397  and  _398
REMARK  173  A    between atoms: _397  and  _400
REMARK  174  A    between atoms: _400  and  _401
REMARK  175  A    between atoms: _406  and  _407
REMARK  176  A    between atoms: _409  and  _411
REMARK  177  A    between atoms: _411  and  _412
REMARK  178  A    between atoms: _411  and  _414
REMARK  179  A    between atoms: _414  and  _415
REMARK  180  A    between atoms: _420  and  _421
REMARK  181  A    between atoms: _423  and  _425
REMARK  182  A    between atoms: _425  and  _426
REMARK  183  A    between atoms: _425  and  _428
REMARK  184  A    between atoms: _431  and  _433
REMARK  185  A    between atoms: _433  and  _434
REMARK  186  A    between atoms: _433  and  _436
REMARK  187  A    between atoms: _436  and  _437
REMARK  188  A    between atoms: _440  and  _442
REMARK  189  A    between atoms: _442  and  _443
REMARK  190  A    between atoms: _442  and  _445
REMARK  191  A    between atoms: _448  and  _450
REMARK  192  A    between atoms: _450  and  _451
REMARK  193  A    between atoms: _450  and  _453
REMARK  194  A    between atoms: _453  and  _454
REMARK  195  A    between atoms: _457  and  _459
REMARK  196  A    between atoms: _459  and  _460
REMARK  197  A    between atoms: _459  and  _462
REMARK  198  A    between atoms: _462  and  _463
REMARK  199  A    between atoms: _466  and  _468
REMARK  200  A    between atoms: _468  and  _469
REMARK  201  A    between atoms: _468  and  _471
REMARK  202  A    between atoms: _471  and  _472
REMARK  203  A    between atoms: _472  and  _473
REMARK  204  A    between atoms: _473  and  _474
REMARK  205  A    between atoms: _474  and  _475
REMARK  206  A    between atoms: _479  and  _481
REMARK  207  A    between atoms: _481  and  _482
REMARK  208  A    between atoms: _481  and  _484
REMARK  209  A    between atoms: _484  and  _485
REMARK  210  A    between atoms: _490  and  _492
REMARK  211  A    between atoms: _492  and  _493
REMARK  212  A    between atoms: _492  and  _495
REMARK  213  A    between atoms: _495  and  _496
REMARK  214  A    between atoms: _506  and  _508
REMARK  215  A    between atoms: _508  and  _509
REMARK  216  A    between atoms: _508  and  _511
REMARK  217  A    between atoms: _511  and  _512
REMARK  218  A    between atoms: _512  and  _513
REMARK  219  A    between atoms: _516  and  _518
REMARK  220  A    between atoms: _518  and  _519
REMARK  221  A    between atoms: _518  and  _521
REMARK  222  A    between atoms: _521  and  _522
REMARK  223  A    between atoms: _524  and  _526
REMARK  224  A    between atoms: _526  and  _527
REMARK  225  A    between atoms: _526  and  _529
REMARK  226  A    between atoms: _529  and  _530
REMARK  227  A    between atoms: _536  and  _538
REMARK  228  A    between atoms: _538  and  _539
REMARK  229  A    between atoms: _538  and  _541
REMARK  230  A    between atoms: _541  and  _542
REMARK  231  A    between atoms: _545  and  _547
REMARK  232  A    between atoms: _547  and  _548
REMARK  233  A    between atoms: _547  and  _550
REMARK  234  A    between atoms: _553  and  _555
REMARK  235  A    between atoms: _555  and  _556
REMARK  236  A    between atoms: _558  and  _560
REMARK  237  A    between atoms: _560  and  _561
REMARK  238  A    between atoms: _560  and  _563
REMARK  239  A    between atoms: _563  and  _564
REMARK  240  A    between atoms: _567  and  _569
REMARK  241  A    between atoms: _569  and  _570
REMARK  242  A    between atoms: _569  and  _572
REMARK  243  A    between atoms: _572  and  _573
REMARK  244  A    between atoms: _573  and  _574
REMARK  245  A    between atoms: _574  and  _575
REMARK  246  A    between atoms: _575  and  _576
REMARK  247  A    between atoms: _580  and  _582
REMARK  248  A    between atoms: _582  and  _583
REMARK  249  A    between atoms: _582  and  _585
REMARK                            x       y       z     vdW  Elec       q    Type
REMARK                         _______ _______ _______ _____ _____    ______ ____
ROOT
ATOM      1  CA  GLY A   1       4.898  -5.340 -14.051  0.00  0.00    +0.156 C 
ENDROOT
BRANCH   1   2
ATOM      2  N   GLY A   1       5.755  -6.066 -13.110  0.00  0.00    -0.238 NA
ATOM      3  H   GLY A   1       5.313  -6.424 -12.240  0.00  0.00    +0.142 HD
ENDBRANCH   1   2
BRANCH   1   4
ATOM      4  C   GLY A   1       5.315  -3.910 -14.332  0.00  0.00    +0.226 C 
ATOM      5  O   GLY A   1       5.139  -3.437 -15.458  0.00  0.00    -0.287 OA
ENDBRANCH   1   4
TORSDOF 2
REMARK  Name = ../refined-set-2016/4o05/4o05_pocket.pdb
REMARK  249 active torsions:
REMARK  status: ('A' for Active; 'I' for Inactive)
REMARK    1  A    between atoms: _1  and  _3
REMARK    2  A    between atoms: _3  and  _4
REMARK    3  A    between atoms: _3  and  _6
REMARK    4  A    between atoms: _6  and  _7
REMARK    5  A    between atoms: _13  and  _15
REMARK    6  A    between atoms: _15  and  _16
REMARK    7  A    between atoms: _15  and  _18
REMARK    8  A    between atoms: _18  and  _19
REMARK    9  A    between atoms: _19  and  _20
REMARK   10  A    between atoms: _25  and  _27
REMARK   11  A    between atoms: _27  and  _28
REMARK   12  A    between atoms: _27  and  _30
REMARK   13  A    between atoms: _30  and  _31
REMARK   14  A    between atoms: _34  and  _36
REMARK   15  A    between atoms: _36  and  _37
REMARK   16  A    between atoms: _36  and  _39
REMARK   17  A    between atoms: _39  and  _40
REMARK   18  A    between atoms: _40  and  _41
REMARK   19  A    between atoms: _44  and  _46
REMARK   20  A    between atoms: _46  and  _47
REMARK   21  A    between atoms: _46  and  _49
REMARK   22  A    between atoms: _49  and  _50
REMARK   23  A    between atoms: _53  and  _55
REMARK   24  A    between atoms: _55  and  _56
REMARK   25  A    between atoms: _55  and  _58
REMARK   26  A    between atoms: _58  and  _59
REMARK   27  A    between atoms: _62  and  _64
REMARK   28  A    between atoms: _64  and  _65
REMARK   29  A    between atoms: _64  and  _67
REMARK   30  A    between atoms: _67  and  _68
REMARK   31  A    between atoms: _70  and  _72
REMARK   32  A    between atoms: _72  and  _73
REMARK   33  A    between atoms: _72  and  _75
REMARK   34  A    between atoms: _75  and  _76
REMARK   35  A    between atoms: _81  and  _83
REMARK   36  A    between atoms: _83  and  _84
REMARK   37  A    between atoms: _83  and  _86
REMARK   38  A    between atoms: _86  and  _87
REMARK   39  A    between atoms: _89  and  _91
REMARK   40  A    between atoms: _91  and  _92
REMARK   41  A    between atoms: _91  and  _94
REMARK   42  A    between atoms: _94  and  _95
REMARK   43  A    between atoms: _97  and  _99
REMARK   44  A    between atoms: _99  and  _100
REMARK   45  A    between atoms: _99  and  _102
REMARK   46  A    between atoms: _102  and  _103
REMARK   47  A    between atoms: _106  and  _108
REMARK   48  A    between atoms: _108  and  _109
REMARK   49  A    between atoms: _112  and  _114
REMARK   50  A    between atoms: _114  and  _115
REMARK   51  A    between atoms: _114  and  _117
REMARK   52  A    between atoms: _117  and  _118
REMARK   53  A    between atoms: _121  and  _123
REMARK   54  A    between atoms: _123  and  _124
REMARK   55  A    between atoms: _123  and  _126
REMARK   56  A    between atoms: _126  and  _127
REMARK   57  A    between atoms: _127  and  _128
REMARK   58  A    between atoms: _128  and  _129
REMARK   59  A    between atoms: _129  and  _130
REMARK   60  A    between atoms: _134  and  _136
REMARK   61  A    between atoms: _136  and  _137
REMARK   62  A    between atoms: _136  and  _139
REMARK   63  A    between atoms: _139  and  _140
REMARK   64  A    between atoms: _143  and  _145
REMARK   65  A    between atoms: _145  and  _146
REMARK   66  A    between atoms: _145  and  _148
REMARK   67  A    between atoms: _148  and  _149
REMARK   68  A    between atoms: _152  and  _154
REMARK   69  A    between atoms: _154  and  _155
REMARK   70  A    between atoms: _154  and  _157
REMARK   71  A    between atoms: _160  and  _162
REMARK   72  A    between atoms: _162  and  _163
REMARK   73  A    between atoms: _162  and  _165
REMARK   74  A    between atoms: _165  and  _166
REMARK   75  A    between atoms: _169  and  _171
REMARK   76  A    between atoms: _171  and  _172
REMARK   77  A    between atoms: _171  and  _174
REMARK   78  A    between atoms: _174  and  _175
REMARK   79  A    between atoms: _178  and  _180
REMARK   80  A    between atoms: _180  and  _181
REMARK   81  A    between atoms: _183  and  _185
REMARK   82  A    between atoms: _185  and  _186
REMARK   83  A    between atoms: _185  and  _188
REMARK   84  A    between atoms: _188  and  _189
REMARK   85  A    between atoms: _192  and  _194
REMARK   86  A    between atoms: _194  and  _195
REMARK   87  A    between atoms: _197  and  _199
REMARK   88  A    between atoms: _199  and  _200
REMARK   89  A    between atoms: _199  and  _202
REMARK   90  A    between atoms: _202  and  _203
REMARK   91  A    between atoms: _203  and  _204
REMARK   92  A    between atoms: _206  and  _208
REMARK   93  A    between atoms: _208  and  _209
REMARK   94  A    between atoms: _208  and  _211
REMARK   95  A    between atoms: _211  and  _212
REMARK   96  A    between atoms: _215  and  _217
REMARK   97  A    between atoms: _217  and  _218
REMARK   98  A    between atoms: _217  and  _220
REMARK   99  A    between atoms: _220  and  _221
REMARK  100  A    between atoms: _221  and  _222
REMARK  101  A    between atoms: _222  and  _223
REMARK  102  A    between atoms: _223  and  _224
REMARK  103  A    between atoms: _228  and  _230
REMARK  104  A    between atoms: _230  and  _231
REMARK  105  A    between atoms: _234  and  _236
REMARK  106  A    between atoms: _236  and  _237
REMARK  107  A    between atoms: _236  and  _239
REMARK  108  A    between atoms: _239  and  _240
REMARK  109  A    between atoms: _243  and  _245
REMARK  110  A    between atoms: _245  and  _246
REMARK  111  A    between atoms: _245  and  _248
REMARK  112  A    between atoms: _248  and  _249
REMARK  113  A    between atoms: _252  and  _254
REMARK  114  A    between atoms: _254  and  _255
REMARK  115  A    between atoms: _254  and  _257
REMARK  116  A    between atoms: _257  and  _258
REMARK  117  A    between atoms: _261  and  _263
REMARK  118  A    between atoms: _263  and  _264
REMARK  119  A    between atoms: _263  and  _266
REMARK  120  A    between atoms: _266  and  _267
REMARK  121  A    between atoms: _272  and  _274
REMARK  122  A    between atoms: _274  and  _275
REMARK  123  A    between atoms: _274  and  _277
REMARK  124  A    between atoms: _277  and  _278
REMARK  125  A    between atoms: _283  and  _285
REMARK  126  A    between atoms: _285  and  _286
REMARK  127  A    between atoms: _285  and  _288
REMARK  128  A    between atoms: _288  and  _289
REMARK  129  A    between atoms: _292  and  _294
REMARK  130  A    between atoms: _294  and  _295
REMARK  131  A    between atoms: _297  and  _299
REMARK  132  A    between atoms: _299  and  _300
REMARK  133  A    between atoms: _299  and  _302
REMARK  134  A    between atoms: _302  and  _303
REMARK  135  A    between atoms: _306  and  _308
REMARK  136  A    between atoms: _308  and  _309
REMARK  137  A    between atoms: _308  and  _311
REMARK  138  A    between atoms: _311  and  _312
REMARK  139  A    between atoms: _315  and  _317
REMARK  140  A    between atoms: _317  and  _318
REMARK  141  A    between atoms: _321  and  _323
REMARK  142  A    between atoms: _323  and  _324
REMARK  143  A    between atoms: _323  and  _326
REMARK  144  A    between atoms: _326  and  _327
REMARK  145  A    between atoms: _327  and  _328
REMARK  146  A    between atoms: _328  and  _329
REMARK  147  A    between atoms: _329  and  _330
REMARK  148  A    between atoms: _334  and  _336
REMARK  149  A    between atoms: _336  and  _337
REMARK  150  A    between atoms: _339  and  _341
REMARK  151  A    between atoms: _341  and  _342
REMARK  152  A    between atoms: _341  and  _344
REMARK  153  A    between atoms: _344  and  _345
REMARK  154  A    between atoms: _348  and  _350
REMARK  155  A    between atoms: _350  and  _351
REMARK  156  A    between atoms: _353  and  _355
REMARK  157  A    between atoms: _355  and  _356
REMARK  158  A    between atoms: _355  and  _358
REMARK  159  A    between atoms: _358  and  _359
REMARK  160  A    between atoms: _365  and  _367
REMARK  161  A    between atoms: _367  and  _368
REMARK  162  A    between atoms: _370  and  _372
REMARK  163  A    between atoms: _372  and  _373
REMARK  164  A    between atoms: _372  and  _375
REMARK  165  A    between atoms: _378  and  _380
REMARK  166  A    between atoms: _380  and  _381
REMARK  167  A    between atoms: _383  and  _385
REMARK  168  A    between atoms: _385  and  _386
REMARK  169  A    between atoms: _385  and  _388
REMARK  170  A    between atoms: _388  and  _389
REMARK  171  A    between atoms: _395  and  _397
REMARK  172  A    between atoms: _397  and  _398
REMARK  173  A    between atoms: _397  and  _400
REMARK  174  A    between atoms: _400  and  _401
REMARK  175  A    between atoms: _406  and  _407
REMARK  176  A    between atoms: _409  and  _411
REMARK  177  A    between atoms: _411  and  _412
REMARK  178  A    between atoms: _411  and  _414
REMARK  179  A    between atoms: _414  and  _415
REMARK  180  A    between atoms: _420  and  _421
REMARK  181  A    between atoms: _423  and  _425
REMARK  182  A    between atoms: _425  and  _426
REMARK  183  A    between atoms: _425  and  _428
REMARK  184  A    between atoms: _431  and  _433
REMARK  185  A    between atoms: _433  and  _434
REMARK  186  A    between atoms: _433  and  _436
REMARK  187  A    between atoms: _436  and  _437
REMARK  188  A    between atoms: _440  and  _442
REMARK  189  A    between atoms: _442  and  _443
REMARK  190  A    between atoms: _442  and  _445
REMARK  191  A    between atoms: _448  and  _450
REMARK  192  A    between atoms: _450  and  _451
REMARK  193  A    between atoms: _450  and  _453
REMARK  194  A    between atoms: _453  and  _454
REMARK  195  A    between atoms: _457  and  _459
REMARK  196  A    between atoms: _459  and  _460
REMARK  197  A    between atoms: _459  and  _462
REMARK  198  A    between atoms: _462  and  _463
REMARK  199  A    between atoms: _466  and  _468
REMARK  200  A    between atoms: _468  and  _469
REMARK  201  A    between atoms: _468  and  _471
REMARK  202  A    between atoms: _471  and  _472
REMARK  203  A    between atoms: _472  and  _473
REMARK  204  A    between atoms: _473  and  _474
REMARK  205  A    between atoms: _474  and  _475
REMARK  206  A    between atoms: _479  and  _481
REMARK  207  A    between atoms: _481  and  _482
REMARK  208  A    between atoms: _481  and  _484
REMARK  209  A    between atoms: _484  and  _485
REMARK  210  A    between atoms: _490  and  _492
REMARK  211  A    between atoms: _492  and  _493
REMARK  212  A    between atoms: _492  and  _495
REMARK  213  A    between atoms: _495  and  _496
REMARK  214  A    between atoms: _506  and  _508
REMARK  215  A    between atoms: _508  and  _509
REMARK  216  A    between atoms: _508  and  _511
REMARK  217  A    between atoms: _511  and  _512
REMARK  218  A    between atoms: _512  and  _513
REMARK  219  A    between atoms: _516  and  _518
REMARK  220  A    between atoms: _518  and  _519
REMARK  221  A    between atoms: _518  and  _521
REMARK  222  A    between atoms: _521  and  _522
REMARK  223  A    between atoms: _524  and  _526
REMARK  224  A    between atoms: _526  and  _527
REMARK  225  A    between atoms: _526  and  _529
REMARK  226  A    between atoms: _529  and  _530
REMARK  227  A    between atoms: _536  and  _538
REMARK  228  A    between atoms: _538  and  _539
REMARK  229  A    between atoms: _538  and  _541
REMARK  230  A    between atoms: _541  and  _542
REMARK  231  A    between atoms: _545  and  _547
REMARK  232  A    between atoms: _547  and  _548
REMARK  233  A    between atoms: _547  and  _550
REMARK  234  A    between atoms: _553  and  _555
REMARK  235  A    between atoms: _555  and  _556
REMARK  236  A    between atoms: _558  and  _560
REMARK  237  A    between atoms: _560  and  _561
REMARK  238  A    between atoms: _560  and  _563
REMARK  239  A    between atoms: _563  and  _564
REMARK  240  A    between atoms: _567  and  _569
REMARK  241  A    between atoms: _569  and  _570
REMARK  242  A    between atoms: _569  and  _572
REMARK  243  A    between atoms: _572  and  _573
REMARK  244  A    between atoms: _573  and  _574
REMARK  245  A    between atoms: _574  and  _575
REMARK  246  A    between atoms: _575  and  _576
REMARK  247  A    between atoms: _580  and  _582
REMARK  248  A    between atoms: _582  and  _583
REMARK  249  A    between atoms: _582  and  _585
REMARK                            x       y       z     vdW  Elec       q    Type
REMARK                         _______ _______ _______ _____ _____    ______ ____
ROOT
ATOM      1  CA  GLY A   4       5.325  -9.356 -16.087  0.00  0.00    +0.176 C 
ENDROOT
BRANCH   1   2
ATOM      2  C   GLY A   4       5.011 -10.735 -16.630  0.00  0.00    +0.243 C 
ATOM      3  O   GLY A   4       4.741 -11.638 -15.843  0.00  0.00    -0.273 OA
ATOM      4  N   PHE A   5       5.076 -10.927 -17.967  0.00  0.00    -0.297 N 
ATOM      5  H   PHE A   5       5.319 -10.118 -18.574  0.00  0.00    +0.150 HD
BRANCH   4   6
ATOM      6  CA  PHE A   5       4.818 -12.231 -18.602  0.00  0.00    +0.153 C 
BRANCH   6   7
ATOM      7  C   PHE A   5       5.635 -13.348 -17.932  0.00  0.00    +0.241 C 
ATOM      8  N   TYR A   6       6.929 -13.070 -17.665  0.00  0.00    -0.298 N 
ATOM      9  H   TYR A   6       7.279 -12.114 -17.879  0.00  0.00    +0.150 HD
ATOM     10  O   PHE A   5       5.101 -14.424 -17.669  0.00  0.00    -0.273 OA
BRANCH   8  11
ATOM     11  CA  TYR A   6       7.870 -14.036 -17.091  0.00  0.00    +0.141 C 
BRANCH  11  12
ATOM     12  C   TYR A   6       7.519 -14.473 -15.655  0.00  0.00    +0.227 C 
ATOM     13  O   TYR A   6       8.043 -15.500 -15.226  0.00  0.00    -0.286 OA
ENDBRANCH  11  12
BRANCH  11  14
ATOM     14  CB  TYR A   6       9.311 -13.531 -17.228  0.00  0.00    +0.054 C 
BRANCH  14  15
ATOM     15  CG  TYR A   6       9.700 -13.520 -18.692  0.00  0.00    -0.020 A 
ATOM     16  CD2 TYR A   6      10.009 -14.706 -19.360  0.00  0.00    -0.001 A 
ATOM     17  CE2 TYR A   6      10.313 -14.712 -20.722  0.00  0.00    +0.036 A 
ATOM     18  CZ  TYR A   6      10.305 -13.522 -21.434  0.00  0.00    +0.134 A 
ATOM     19  CE1 TYR A   6       9.996 -12.326 -20.795  0.00  0.00    +0.036 A 
ATOM     20  CD1 TYR A   6       9.689 -12.332 -19.431  0.00  0.00    -0.001 A 
BRANCH  18  21
ATOM     21  OH  TYR A   6      10.659 -13.551 -22.759  0.00  0.00    -0.506 OA
ATOM     22  HH  TYR A   6       9.919 -13.185 -23.305  0.00  0.00    +0.292 HD
ENDBRANCH  18  21
ENDBRANCH  14  15
ENDBRANCH  11  14
ENDBRANCH   8  11
ENDBRANCH   6   7
BRANCH   6  23
ATOM     23  CB  PHE A   5       5.142 -12.209 -20.122  0.00  0.00    +0.055 C 
BRANCH  23  24
ATOM     24  CG  PHE A   5       5.088 -13.603 -20.728  0.00  0.00    -0.020 A 
ATOM     25  CD2 PHE A   5       6.262 -14.343 -20.935  0.00  0.00    -0.004 A 
ATOM     26  CE2 PHE A   5       6.210 -15.651 -21.453  0.00  0.00    -0.000 A 
ATOM     27  CZ  PHE A   5       4.984 -16.220 -21.777  0.00  0.00    -0.000 A 
ATOM     28  CE1 PHE A   5       3.809 -15.506 -21.571  0.00  0.00    -0.000 A 
ATOM     29  CD1 PHE A   5       3.863 -14.197 -21.047  0.00  0.00    -0.004 A 
ENDBRANCH  23  24
ENDBRANCH   6  23
ENDBRANCH   4   6
ENDBRANCH   1   2
BRANCH   1  31
ATOM     30  C   VAL A   3       7.522  -9.014 -17.215  0.00  0.00    +0.241 C 
ATOM     31  N   GLY A   4       6.305  -8.588 -16.847  0.00  0.00    -0.295 N 
ATOM     32  H   GLY A   4       6.036  -7.624 -17.129  0.00  0.00    +0.150 HD
ATOM     33  O   VAL A   3       7.971 -10.143 -16.968  0.00  0.00    -0.273 OA
BRANCH  30  34
ATOM     34  CA  VAL A   3       8.357  -7.995 -18.028  0.00  0.00    +0.149 C 
BRANCH  34  36
ATOM     35  C   GLY A   2       7.505  -5.792 -18.794  0.00  0.00    +0.243 C 
ATOM     36  N   VAL A   3       7.862  -6.627 -17.791  0.00  0.00    -0.297 N 
ATOM     37  H   VAL A   3       7.784  -6.289 -16.811  0.00  0.00    +0.150 HD
ATOM     38  O   GLY A   2       7.574  -6.108 -19.980  0.00  0.00    -0.273 OA
BRANCH  35  39
ATOM     39  CA  GLY A   2       7.025  -4.408 -18.416  0.00  0.00    +0.176 C 
BRANCH  39  41
ATOM     40  C   PHE A   1       8.946  -3.590 -17.058  0.00  0.00    +0.239 C 
ATOM     41  N   GLY A   2       7.642  -3.852 -17.217  0.00  0.00    -0.296 N 
ATOM     42  H   GLY A   2       7.014  -3.640 -16.415  0.00  0.00    +0.150 HD
ATOM     43  O   PHE A   1       9.806  -3.781 -17.926  0.00  0.00    -0.274 OA
BRANCH  40  44
ATOM     44  CA  PHE A   1       9.336  -2.997 -15.707  0.00  0.00    +0.149 C 
BRANCH  44  45
ATOM     45  N   PHE A   1       8.196  -2.882 -14.795  0.00  0.00    -0.238 NA
ATOM     46  H   PHE A   1       7.820  -3.762 -14.388  0.00  0.00    +0.142 HD
ENDBRANCH  44  45
BRANCH  44  47
ATOM     47  CB  PHE A   1      10.485  -3.773 -15.020  0.00  0.00    +0.053 C 
BRANCH  47  48
ATOM     48  CG  PHE A   1      10.936  -3.116 -13.735  0.00  0.00    -0.020 A 
ATOM     49  CD2 PHE A   1      10.348  -3.457 -12.516  0.00  0.00    -0.004 A 
ATOM     50  CE2 PHE A   1      10.752  -2.841 -11.323  0.00  0.00    -0.000 A 
ATOM     51  CZ  PHE A   1      11.750  -1.885 -11.347  0.00  0.00    -0.000 A 
ATOM     52  CE1 PHE A   1      12.345  -1.526 -12.545  0.00  0.00    -0.000 A 
ATOM     53  CD1 PHE A   1      11.935  -2.140 -13.743  0.00  0.00    -0.004 A 
ENDBRANCH  47  48
ENDBRANCH  44  47
ENDBRANCH  40  44
ENDBRANCH  39  41
ENDBRANCH  35  39
ENDBRANCH  34  36
BRANCH  34  54
ATOM     54  CB  VAL A   3       9.903  -8.153 -17.845  0.00  0.00    +0.027 C 
ATOM     55  CG2 VAL A   3      10.371  -7.751 -16.438  0.00  0.00    +0.002 C 
ATOM     56  CG1 VAL A   3      10.667  -7.377 -18.921  0.00  0.00    +0.002 C 
ENDBRANCH  34  54
ENDBRANCH  30  34
ENDBRANCH   1  31
TORSDOF 20
REMARK  Name = ../refined-set-2016/4o05/4o05_pocket.pdb
REMARK  249 active torsions:
REMARK  status: ('A' for Active; 'I' for Inactive)
REMARK    1  A    between atoms: _1  and  _3
REMARK    2  A    between atoms: _3  and  _4
REMARK    3  A    between atoms: _3  and  _6
REMARK    4  A    between atoms: _6  and  _7
REMARK    5  A    between atoms: _13  and  _15
REMARK    6  A    between atoms: _15  and  _16
REMARK    7  A    between atoms: _15  and  _18
REMARK    8  A    between atoms: _18  and  _19
REMARK    9  A    between atoms: _19  and  _20
REMARK   10  A    between atoms: _25  and  _27
REMARK   11  A    between atoms: _27  and  _28
REMARK   12  A    between atoms: _27  and  _30
REMARK   13  A    between atoms: _30  and  _31
REMARK   14  A    between atoms: _34  and  _36
REMARK   15  A    between atoms: _36  and  _37
REMARK   16  A    between atoms: _36  and  _39
REMARK   17  A    between atoms: _39  and  _40
REMARK   18  A    between atoms: _40  and  _41
REMARK   19  A    between atoms: _44  and  _46
REMARK   20  A    between atoms: _46  and  _47
REMARK   21  A    between atoms: _46  and  _49
REMARK   22  A    between atoms: _49  and  _50
REMARK   23  A    between atoms: _53  and  _55
REMARK   24  A    between atoms: _55  and  _56
REMARK   25  A    between atoms: _55  and  _58
REMARK   26  A    between atoms: _58  and  _59
REMARK   27  A    between atoms: _62  and  _64
REMARK   28  A    between atoms: _64  and  _65
REMARK   29  A    between atoms: _64  and  _67
REMARK   30  A    between atoms: _67  and  _68
REMARK   31  A    between atoms: _70  and  _72
REMARK   32  A    between atoms: _72  and  _73
REMARK   33  A    between atoms: _72  and  _75
REMARK   34  A    between atoms: _75  and  _76
REMARK   35  A    between atoms: _81  and  _83
REMARK   36  A    between atoms: _83  and  _84
REMARK   37  A    between atoms: _83  and  _86
REMARK   38  A    between atoms: _86  and  _87
REMARK   39  A    between atoms: _89  and  _91
REMARK   40  A    between atoms: _91  and  _92
REMARK   41  A    between atoms: _91  and  _94
REMARK   42  A    between atoms: _94  and  _95
REMARK   43  A    between atoms: _97  and  _99
REMARK   44  A    between atoms: _99  and  _100
REMARK   45  A    between atoms: _99  and  _102
REMARK   46  A    between atoms: _102  and  _103
REMARK   47  A    between atoms: _106  and  _108
REMARK   48  A    between atoms: _108  and  _109
REMARK   49  A    between atoms: _112  and  _114
REMARK   50  A    between atoms: _114  and  _115
REMARK   51  A    between atoms: _114  and  _117
REMARK   52  A    between atoms: _117  and  _118
REMARK   53  A    between atoms: _121  and  _123
REMARK   54  A    between atoms: _123  and  _124
REMARK   55  A    between atoms: _123  and  _126
REMARK   56  A    between atoms: _126  and  _127
REMARK   57  A    between atoms: _127  and  _128
REMARK   58  A    between atoms: _128  and  _129
REMARK   59  A    between atoms: _129  and  _130
REMARK   60  A    between atoms: _134  and  _136
REMARK   61  A    between atoms: _136  and  _137
REMARK   62  A    between atoms: _136  and  _139
REMARK   63  A    between atoms: _139  and  _140
REMARK   64  A    between atoms: _143  and  _145
REMARK   65  A    between atoms: _145  and  _146
REMARK   66  A    between atoms: _145  and  _148
REMARK   67  A    between atoms: _148  and  _149
REMARK   68  A    between atoms: _152  and  _154
REMARK   69  A    between atoms: _154  and  _155
REMARK   70  A    between atoms: _154  and  _157
REMARK   71  A    between atoms: _160  and  _162
REMARK   72  A    between atoms: _162  and  _163
REMARK   73  A    between atoms: _162  and  _165
REMARK   74  A    between atoms: _165  and  _166
REMARK   75  A    between atoms: _169  and  _171
REMARK   76  A    between atoms: _171  and  _172
REMARK   77  A    between atoms: _171  and  _174
REMARK   78  A    between atoms: _174  and  _175
REMARK   79  A    between atoms: _178  and  _180
REMARK   80  A    between atoms: _180  and  _181
REMARK   81  A    between atoms: _183  and  _185
REMARK   82  A    between atoms: _185  and  _186
REMARK   83  A    between atoms: _185  and  _188
REMARK   84  A    between atoms: _188  and  _189
REMARK   85  A    between atoms: _192  and  _194
REMARK   86  A    between atoms: _194  and  _195
REMARK   87  A    between atoms: _197  and  _199
REMARK   88  A    between atoms: _199  and  _200
REMARK   89  A    between atoms: _199  and  _202
REMARK   90  A    between atoms: _202  and  _203
REMARK   91  A    between atoms: _203  and  _204
REMARK   92  A    between atoms: _206  and  _208
REMARK   93  A    between atoms: _208  and  _209
REMARK   94  A    between atoms: _208  and  _211
REMARK   95  A    between atoms: _211  and  _212
REMARK   96  A    between atoms: _215  and  _217
REMARK   97  A    between atoms: _217  and  _218
REMARK   98  A    between atoms: _217  and  _220
REMARK   99  A    between atoms: _220  and  _221
REMARK  100  A    between atoms: _221  and  _222
REMARK  101  A    between atoms: _222  and  _223
REMARK  102  A    between atoms: _223  and  _224
REMARK  103  A    between atoms: _228  and  _230
REMARK  104  A    between atoms: _230  and  _231
REMARK  105  A    between atoms: _234  and  _236
REMARK  106  A    between atoms: _236  and  _237
REMARK  107  A    between atoms: _236  and  _239
REMARK  108  A    between atoms: _239  and  _240
REMARK  109  A    between atoms: _243  and  _245
REMARK  110  A    between atoms: _245  and  _246
REMARK  111  A    between atoms: _245  and  _248
REMARK  112  A    between atoms: _248  and  _249
REMARK  113  A    between atoms: _252  and  _254
REMARK  114  A    between atoms: _254  and  _255
REMARK  115  A    between atoms: _254  and  _257
REMARK  116  A    between atoms: _257  and  _258
REMARK  117  A    between atoms: _261  and  _263
REMARK  118  A    between atoms: _263  and  _264
REMARK  119  A    between atoms: _263  and  _266
REMARK  120  A    between atoms: _266  and  _267
REMARK  121  A    between atoms: _272  and  _274
REMARK  122  A    between atoms: _274  and  _275
REMARK  123  A    between atoms: _274  and  _277
REMARK  124  A    between atoms: _277  and  _278
REMARK  125  A    between atoms: _283  and  _285
REMARK  126  A    between atoms: _285  and  _286
REMARK  127  A    between atoms: _285  and  _288
REMARK  128  A    between atoms: _288  and  _289
REMARK  129  A    between atoms: _292  and  _294
REMARK  130  A    between atoms: _294  and  _295
REMARK  131  A    between atoms: _297  and  _299
REMARK  132  A    between atoms: _299  and  _300
REMARK  133  A    between atoms: _299  and  _302
REMARK  134  A    between atoms: _302  and  _303
REMARK  135  A    between atoms: _306  and  _308
REMARK  136  A    between atoms: _308  and  _309
REMARK  137  A    between atoms: _308  and  _311
REMARK  138  A    between atoms: _311  and  _312
REMARK  139  A    between atoms: _315  and  _317
REMARK  140  A    between atoms: _317  and  _318
REMARK  141  A    between atoms: _321  and  _323
REMARK  142  A    between atoms: _323  and  _324
REMARK  143  A    between atoms: _323  and  _326
REMARK  144  A    between atoms: _326  and  _327
REMARK  145  A    between atoms: _327  and  _328
REMARK  146  A    between atoms: _328  and  _329
REMARK  147  A    between atoms: _329  and  _330
REMARK  148  A    between atoms: _334  and  _336
REMARK  149  A    between atoms: _336  and  _337
REMARK  150  A    between atoms: _339  and  _341
REMARK  151  A    between atoms: _341  and  _342
REMARK  152  A    between atoms: _341  and  _344
REMARK  153  A    between atoms: _344  and  _345
REMARK  154  A    between atoms: _348  and  _350
REMARK  155  A    between atoms: _350  and  _351
REMARK  156  A    between atoms: _353  and  _355
REMARK  157  A    between atoms: _355  and  _356
REMARK  158  A    between atoms: _355  and  _358
REMARK  159  A    between atoms: _358  and  _359
REMARK  160  A    between atoms: _365  and  _367
REMARK  161  A    between atoms: _367  and  _368
REMARK  162  A    between atoms: _370  and  _372
REMARK  163  A    between atoms: _372  and  _373
REMARK  164  A    between atoms: _372  and  _375
REMARK  165  A    between atoms: _378  and  _380
REMARK  166  A    between atoms: _380  and  _381
REMARK  167  A    between atoms: _383  and  _385
REMARK  168  A    between atoms: _385  and  _386
REMARK  169  A    between atoms: _385  and  _388
REMARK  170  A    between atoms: _388  and  _389
REMARK  171  A    between atoms: _395  and  _397
REMARK  172  A    between atoms: _397  and  _398
REMARK  173  A    between atoms: _397  and  _400
REMARK  174  A    between atoms: _400  and  _401
REMARK  175  A    between atoms: _406  and  _407
REMARK  176  A    between atoms: _409  and  _411
REMARK  177  A    between atoms: _411  and  _412
REMARK  178  A    between atoms: _411  and  _414
REMARK  179  A    between atoms: _414  and  _415
REMARK  180  A    between atoms: _420  and  _421
REMARK  181  A    between atoms: _423  and  _425
REMARK  182  A    between atoms: _425  and  _426
REMARK  183  A    between atoms: _425  and  _428
REMARK  184  A    between atoms: _431  and  _433
REMARK  185  A    between atoms: _433  and  _434
REMARK  186  A    between atoms: _433  and  _436
REMARK  187  A    between atoms: _436  and  _437
REMARK  188  A    between atoms: _440  and  _442
REMARK  189  A    between atoms: _442  and  _443
REMARK  190  A    between atoms: _442  and  _445
REMARK  191  A    between atoms: _448  and  _450
REMARK  192  A    between atoms: _450  and  _451
REMARK  193  A    between atoms: _450  and  _453
REMARK  194  A    between atoms: _453  and  _454
REMARK  195  A    between atoms: _457  and  _459
REMARK  196  A    between atoms: _459  and  _460
REMARK  197  A    between atoms: _459  and  _462
REMARK  198  A    between atoms: _462  and  _463
REMARK  199  A    between atoms: _466  and  _468
REMARK  200  A    between atoms: _468  and  _469
REMARK  201  A    between atoms: _468  and  _471
REMARK  202  A    between atoms: _471  and  _472
REMARK  203  A    between atoms: _472  and  _473
REMARK  204  A    between atoms: _473  and  _474
REMARK  205  A    between atoms: _474  and  _475
REMARK  206  A    between atoms: _479  and  _481
REMARK  207  A    between atoms: _481  and  _482
REMARK  208  A    between atoms: _481  and  _484
REMARK  209  A    between atoms: _484  and  _485
REMARK  210  A    between atoms: _490  and  _492
REMARK  211  A    between atoms: _492  and  _493
REMARK  212  A    between atoms: _492  and  _495
REMARK  213  A    between atoms: _495  and  _496
REMARK  214  A    between atoms: _506  and  _508
REMARK  215  A    between atoms: _508  and  _509
REMARK  216  A    between atoms: _508  and  _511
REMARK  217  A    between atoms: _511  and  _512
REMARK  218  A    between atoms: _512  and  _513
REMARK  219  A    between atoms: _516  and  _518
REMARK  220  A    between atoms: _518  and  _519
REMARK  221  A    between atoms: _518  and  _521
REMARK  222  A    between atoms: _521  and  _522
REMARK  223  A    between atoms: _524  and  _526
REMARK  224  A    between atoms: _526  and  _527
REMARK  225  A    between atoms: _526  and  _529
REMARK  226  A    between atoms: _529  and  _530
REMARK  227  A    between atoms: _536  and  _538
REMARK  228  A    between atoms: _538  and  _539
REMARK  229  A    between atoms: _538  and  _541
REMARK  230  A    between atoms: _541  and  _542
REMARK  231  A    between atoms: _545  and  _547
REMARK  232  A    between atoms: _547  and  _548
REMARK  233  A    between atoms: _547  and  _550
REMARK  234  A    between atoms: _553  and  _555
REMARK  235  A    between atoms: _555  and  _556
REMARK  236  A    between atoms: _558  and  _560
REMARK  237  A    between atoms: _560  and  _561
REMARK  238  A    between atoms: _560  and  _563
REMARK  239  A    between atoms: _563  and  _564
REMARK  240  A    between atoms: _567  and  _569
REMARK  241  A    between atoms: _569  and  _570
REMARK  242  A    between atoms: _569  and  _572
REMARK  243  A    between atoms: _572  and  _573
REMARK  244  A    between atoms: _573  and  _574
REMARK  245  A    between atoms: _574  and  _575
REMARK  246  A    between atoms: _575  and  _576
REMARK  247  A    between atoms: _580  and  _582
REMARK  248  A    between atoms: _582  and  _583
REMARK  249  A    between atoms: _582  and  _585
REMARK                            x       y       z     vdW  Elec       q    Type
REMARK                         _______ _______ _______ _____ _____    ______ ____
ROOT
ATOM      1  CG  TYR A   1       8.755 -19.356 -16.303  0.00  0.00    -0.020 A 
ATOM      2  CD2 TYR A   1       8.891 -20.686 -16.716  0.00  0.00    -0.001 A 
ATOM      3  CE2 TYR A   1       8.758 -21.045 -18.062  0.00  0.00    +0.036 A 
ATOM      4  CZ  TYR A   1       8.449 -20.074 -19.005  0.00  0.00    +0.134 A 
ATOM      5  CE1 TYR A   1       8.274 -18.751 -18.614  0.00  0.00    +0.036 A 
ATOM      6  CD1 TYR A   1       8.428 -18.399 -17.270  0.00  0.00    -0.001 A 
ENDROOT
BRANCH   4   7
ATOM      7  OH  TYR A   1       8.293 -20.419 -20.324  0.00  0.00    -0.506 OA
ATOM      8  HH  TYR A   1       8.451 -21.390 -20.431  0.00  0.00    +0.292 HD
ENDBRANCH   4   7
BRANCH   1   9
ATOM      9  CB  TYR A   1       8.839 -18.984 -14.838  0.00  0.00    +0.051 C 
BRANCH   9  10
ATOM     10  CA  TYR A   1       7.467 -19.237 -14.191  0.00  0.00    +0.137 C 
BRANCH  10  11
ATOM     11  N   TYR A   1       6.482 -18.251 -14.661  0.00  0.00    -0.239 NA
ATOM     12  H   TYR A   1       6.847 -17.348 -15.026  0.00  0.00    +0.142 HD
ENDBRANCH  10  11
BRANCH  10  13
ATOM     13  C   TYR A   1       7.526 -19.359 -12.646  0.00  0.00    +0.224 C 
ATOM     14  O   TYR A   1       8.253 -20.229 -12.140  0.00  0.00    -0.287 OA
ENDBRANCH  10  13
ENDBRANCH   9  10
ENDBRANCH   1   9
TORSDOF 5
REMARK  Name = ../refined-set-2016/4o05/4o05_pocket.pdb
REMARK  249 active torsions:
REMARK  status: ('A' for Active; 'I' for Inactive)
REMARK    1  A    between atoms: _1  and  _3
REMARK    2  A    between atoms: _3  and  _4
REMARK    3  A    between atoms: _3  and  _6
REMARK    4  A    between atoms: _6  and  _7
REMARK    5  A    between atoms: _13  and  _15
REMARK    6  A    between atoms: _15  and  _16
REMARK    7  A    between atoms: _15  and  _18
REMARK    8  A    between atoms: _18  and  _19
REMARK    9  A    between atoms: _19  and  _20
REMARK   10  A    between atoms: _25  and  _27
REMARK   11  A    between atoms: _27  and  _28
REMARK   12  A    between atoms: _27  and  _30
REMARK   13  A    between atoms: _30  and  _31
REMARK   14  A    between atoms: _34  and  _36
REMARK   15  A    between atoms: _36  and  _37
REMARK   16  A    between atoms: _36  and  _39
REMARK   17  A    between atoms: _39  and  _40
REMARK   18  A    between atoms: _40  and  _41
REMARK   19  A    between atoms: _44  and  _46
REMARK   20  A    between atoms: _46  and  _47
REMARK   21  A    between atoms: _46  and  _49
REMARK   22  A    between atoms: _49  and  _50
REMARK   23  A    between atoms: _53  and  _55
REMARK   24  A    between atoms: _55  and  _56
REMARK   25  A    between atoms: _55  and  _58
REMARK   26  A    between atoms: _58  and  _59
REMARK   27  A    between atoms: _62  and  _64
REMARK   28  A    between atoms: _64  and  _65
REMARK   29  A    between atoms: _64  and  _67
REMARK   30  A    between atoms: _67  and  _68
REMARK   31  A    between atoms: _70  and  _72
REMARK   32  A    between atoms: _72  and  _73
REMARK   33  A    between atoms: _72  and  _75
REMARK   34  A    between atoms: _75  and  _76
REMARK   35  A    between atoms: _81  and  _83
REMARK   36  A    between atoms: _83  and  _84
REMARK   37  A    between atoms: _83  and  _86
REMARK   38  A    between atoms: _86  and  _87
REMARK   39  A    between atoms: _89  and  _91
REMARK   40  A    between atoms: _91  and  _92
REMARK   41  A    between atoms: _91  and  _94
REMARK   42  A    between atoms: _94  and  _95
REMARK   43  A    between atoms: _97  and  _99
REMARK   44  A    between atoms: _99  and  _100
REMARK   45  A    between atoms: _99  and  _102
REMARK   46  A    between atoms: _102  and  _103
REMARK   47  A    between atoms: _106  and  _108
REMARK   48  A    between atoms: _108  and  _109
REMARK   49  A    between atoms: _112  and  _114
REMARK   50  A    between atoms: _114  and  _115
REMARK   51  A    between atoms: _114  and  _117
REMARK   52  A    between atoms: _117  and  _118
REMARK   53  A    between atoms: _121  and  _123
REMARK   54  A    between atoms: _123  and  _124
REMARK   55  A    between atoms: _123  and  _126
REMARK   56  A    between atoms: _126  and  _127
REMARK   57  A    between atoms: _127  and  _128
REMARK   58  A    between atoms: _128  and  _129
REMARK   59  A    between atoms: _129  and  _130
REMARK   60  A    between atoms: _134  and  _136
REMARK   61  A    between atoms: _136  and  _137
REMARK   62  A    between atoms: _136  and  _139
REMARK   63  A    between atoms: _139  and  _140
REMARK   64  A    between atoms: _143  and  _145
REMARK   65  A    between atoms: _145  and  _146
REMARK   66  A    between atoms: _145  and  _148
REMARK   67  A    between atoms: _148  and  _149
REMARK   68  A    between atoms: _152  and  _154
REMARK   69  A    between atoms: _154  and  _155
REMARK   70  A    between atoms: _154  and  _157
REMARK   71  A    between atoms: _160  and  _162
REMARK   72  A    between atoms: _162  and  _163
REMARK   73  A    between atoms: _162  and  _165
REMARK   74  A    between atoms: _165  and  _166
REMARK   75  A    between atoms: _169  and  _171
REMARK   76  A    between atoms: _171  and  _172
REMARK   77  A    between atoms: _171  and  _174
REMARK   78  A    between atoms: _174  and  _175
REMARK   79  A    between atoms: _178  and  _180
REMARK   80  A    between atoms: _180  and  _181
REMARK   81  A    between atoms: _183  and  _185
REMARK   82  A    between atoms: _185  and  _186
REMARK   83  A    between atoms: _185  and  _188
REMARK   84  A    between atoms: _188  and  _189
REMARK   85  A    between atoms: _192  and  _194
REMARK   86  A    between atoms: _194  and  _195
REMARK   87  A    between atoms: _197  and  _199
REMARK   88  A    between atoms: _199  and  _200
REMARK   89  A    between atoms: _199  and  _202
REMARK   90  A    between atoms: _202  and  _203
REMARK   91  A    between atoms: _203  and  _204
REMARK   92  A    between atoms: _206  and  _208
REMARK   93  A    between atoms: _208  and  _209
REMARK   94  A    between atoms: _208  and  _211
REMARK   95  A    between atoms: _211  and  _212
REMARK   96  A    between atoms: _215  and  _217
REMARK   97  A    between atoms: _217  and  _218
REMARK   98  A    between atoms: _217  and  _220
REMARK   99  A    between atoms: _220  and  _221
REMARK  100  A    between atoms: _221  and  _222
REMARK  101  A    between atoms: _222  and  _223
REMARK  102  A    between atoms: _223  and  _224
REMARK  103  A    between atoms: _228  and  _230
REMARK  104  A    between atoms: _230  and  _231
REMARK  105  A    between atoms: _234  and  _236
REMARK  106  A    between atoms: _236  and  _237
REMARK  107  A    between atoms: _236  and  _239
REMARK  108  A    between atoms: _239  and  _240
REMARK  109  A    between atoms: _243  and  _245
REMARK  110  A    between atoms: _245  and  _246
REMARK  111  A    between atoms: _245  and  _248
REMARK  112  A    between atoms: _248  and  _249
REMARK  113  A    between atoms: _252  and  _254
REMARK  114  A    between atoms: _254  and  _255
REMARK  115  A    between atoms: _254  and  _257
REMARK  116  A    between atoms: _257  and  _258
REMARK  117  A    between atoms: _261  and  _263
REMARK  118  A    between atoms: _263  and  _264
REMARK  119  A    between atoms: _263  and  _266
REMARK  120  A    between atoms: _266  and  _267
REMARK  121  A    between atoms: _272  and  _274
REMARK  122  A    between atoms: _274  and  _275
REMARK  123  A    between atoms: _274  and  _277
REMARK  124  A    between atoms: _277  and  _278
REMARK  125  A    between atoms: _283  and  _285
REMARK  126  A    between atoms: _285  and  _286
REMARK  127  A    between atoms: _285  and  _288
REMARK  128  A    between atoms: _288  and  _289
REMARK  129  A    between atoms: _292  and  _294
REMARK  130  A    between atoms: _294  and  _295
REMARK  131  A    between atoms: _297  and  _299
REMARK  132  A    between atoms: _299  and  _300
REMARK  133  A    between atoms: _299  and  _302
REMARK  134  A    between atoms: _302  and  _303
REMARK  135  A    between atoms: _306  and  _308
REMARK  136  A    between atoms: _308  and  _309
REMARK  137  A    between atoms: _308  and  _311
REMARK  138  A    between atoms: _311  and  _312
REMARK  139  A    between atoms: _315  and  _317
REMARK  140  A    between atoms: _317  and  _318
REMARK  141  A    between atoms: _321  and  _323
REMARK  142  A    between atoms: _323  and  _324
REMARK  143  A    between atoms: _323  and  _326
REMARK  144  A    between atoms: _326  and  _327
REMARK  145  A    between atoms: _327  and  _328
REMARK  146  A    between atoms: _328  and  _329
REMARK  147  A    between atoms: _329  and  _330
REMARK  148  A    between atoms: _334  and  _336
REMARK  149  A    between atoms: _336  and  _337
REMARK  150  A    between atoms: _339  and  _341
REMARK  151  A    between atoms: _341  and  _342
REMARK  152  A    between atoms: _341  and  _344
REMARK  153  A    between atoms: _344  and  _345
REMARK  154  A    between atoms: _348  and  _350
REMARK  155  A    between atoms: _350  and  _351
REMARK  156  A    between atoms: _353  and  _355
REMARK  157  A    between atoms: _355  and  _356
REMARK  158  A    between atoms: _355  and  _358
REMARK  159  A    between atoms: _358  and  _359
REMARK  160  A    between atoms: _365  and  _367
REMARK  161  A    between atoms: _367  and  _368
REMARK  162  A    between atoms: _370  and  _372
REMARK  163  A    between atoms: _372  and  _373
REMARK  164  A    between atoms: _372  and  _375
REMARK  165  A    between atoms: _378  and  _380
REMARK  166  A    between atoms: _380  and  _381
REMARK  167  A    between atoms: _383  and  _385
REMARK  168  A    between atoms: _385  and  _386
REMARK  169  A    between atoms: _385  and  _388
REMARK  170  A    between atoms: _388  and  _389
REMARK  171  A    between atoms: _395  and  _397
REMARK  172  A    between atoms: _397  and  _398
REMARK  173  A    between atoms: _397  and  _400
REMARK  174  A    between atoms: _400  and  _401
REMARK  175  A    between atoms: _406  and  _407
REMARK  176  A    between atoms: _409  and  _411
REMARK  177  A    between atoms: _411  and  _412
REMARK  178  A    between atoms: _411  and  _414
REMARK  179  A    between atoms: _414  and  _415
REMARK  180  A    between atoms: _420  and  _421
REMARK  181  A    between atoms: _423  and  _425
REMARK  182  A    between atoms: _425  and  _426
REMARK  183  A    between atoms: _425  and  _428
REMARK  184  A    between atoms: _431  and  _433
REMARK  185  A    between atoms: _433  and  _434
REMARK  186  A    between atoms: _433  and  _436
REMARK  187  A    between atoms: _436  and  _437
REMARK  188  A    between atoms: _440  and  _442
REMARK  189  A    between atoms: _442  and  _443
REMARK  190  A    between atoms: _442  and  _445
REMARK  191  A    between atoms: _448  and  _450
REMARK  192  A    between atoms: _450  and  _451
REMARK  193  A    between atoms: _450  and  _453
REMARK  194  A    between atoms: _453  and  _454
REMARK  195  A    between atoms: _457  and  _459
REMARK  196  A    between atoms: _459  and  _460
REMARK  197  A    between atoms: _459  and  _462
REMARK  198  A    between atoms: _462  and  _463
REMARK  199  A    between atoms: _466  and  _468
REMARK  200  A    between atoms: _468  and  _469
REMARK  201  A    between atoms: _468  and  _471
REMARK  202  A    between atoms: _471  and  _472
REMARK  203  A    between atoms: _472  and  _473
REMARK  204  A    between atoms: _473  and  _474
REMARK  205  A    between atoms: _474  and  _475
REMARK  206  A    between atoms: _479  and  _481
REMARK  207  A    between atoms: _481  and  _482
REMARK  208  A    between atoms: _481  and  _484
REMARK  209  A    between atoms: _484  and  _485
REMARK  210  A    between atoms: _490  and  _492
REMARK  211  A    between atoms: _492  and  _493
REMARK  212  A    between atoms: _492  and  _495
REMARK  213  A    between atoms: _495  and  _496
REMARK  214  A    between atoms: _506  and  _508
REMARK  215  A    between atoms: _508  and  _509
REMARK  216  A    between atoms: _508  and  _511
REMARK  217  A    between atoms: _511  and  _512
REMARK  218  A    between atoms: _512  and  _513
REMARK  219  A    between atoms: _516  and  _518
REMARK  220  A    between atoms: _518  and  _519
REMARK  221  A    between atoms: _518  and  _521
REMARK  222  A    between atoms: _521  and  _522
REMARK  223  A    between atoms: _524  and  _526
REMARK  224  A    between atoms: _526  and  _527
REMARK  225  A    between atoms: _526  and  _529
REMARK  226  A    between atoms: _529  and  _530
REMARK  227  A    between atoms: _536  and  _538
REMARK  228  A    between atoms: _538  and  _539
REMARK  229  A    between atoms: _538  and  _541
REMARK  230  A    between atoms: _541  and  _542
REMARK  231  A    between atoms: _545  and  _547
REMARK  232  A    between atoms: _547  and  _548
REMARK  233  A    between atoms: _547  and  _550
REMARK  234  A    between atoms: _553  and  _555
REMARK  235  A    between atoms: _555  and  _556
REMARK  236  A    between atoms: _558  and  _560
REMARK  237  A    between atoms: _560  and  _561
REMARK  238  A    between atoms: _560  and  _563
REMARK  239  A    between atoms: _563  and  _564
REMARK  240  A    between atoms: _567  and  _569
REMARK  241  A    between atoms: _569  and  _570
REMARK  242  A    between atoms: _569  and  _572
REMARK  243  A    between atoms: _572  and  _573
REMARK  244  A    between atoms: _573  and  _574
REMARK  245  A    between atoms: _574  and  _575
REMARK  246  A    between atoms: _575  and  _576
REMARK  247  A    between atoms: _580  and  _582
REMARK  248  A    between atoms: _582  and  _583
REMARK  249  A    between atoms: _582  and  _585
REMARK                            x       y       z     vdW  Elec       q    Type
REMARK                         _______ _______ _______ _____ _____    ______ ____
ROOT
ATOM      1  C   ILE A   4      -1.198 -18.843 -29.348  0.00  0.00    +0.241 C 
ATOM      2  O   ILE A   4      -1.973 -18.278 -28.579  0.00  0.00    -0.273 OA
ATOM      3  N   THR A   5      -0.790 -18.302 -30.499  0.00  0.00    -0.295 N 
ATOM      4  H   THR A   5      -0.167 -18.842 -31.133  0.00  0.00    +0.150 HD
ENDROOT
BRANCH   3   5
ATOM      5  CA  THR A   5      -1.215 -16.953 -30.873  0.00  0.00    +0.176 C 
BRANCH   5   6
ATOM      6  C   THR A   5      -1.504 -16.787 -32.363  0.00  0.00    +0.243 C 
ATOM      7  N   LYS A   6      -2.437 -15.861 -32.659  0.00  0.00    -0.297 N 
ATOM      8  H   LYS A   6      -2.885 -15.355 -31.868  0.00  0.00    +0.150 HD
ATOM      9  O   THR A   5      -0.889 -17.448 -33.205  0.00  0.00    -0.273 OA
BRANCH   7  10
ATOM     10  CA  LYS A   6      -2.863 -15.518 -34.011  0.00  0.00    +0.149 C 
BRANCH  10  11
ATOM     11  C   LYS A   6      -3.124 -14.015 -34.144  0.00  0.00    +0.241 C 
ATOM     12  O   LYS A   6      -4.025 -13.475 -33.499  0.00  0.00    -0.273 OA
ATOM     13  N   HIS A   7      -2.322 -13.368 -34.995  0.00  0.00    -0.298 N 
ATOM     14  H   HIS A   7      -1.575 -13.928 -35.453  0.00  0.00    +0.150 HD
BRANCH  13  15
ATOM     15  CA  HIS A   7      -2.391 -11.949 -35.346  0.00  0.00    +0.143 C 
BRANCH  15  16
ATOM     16  C   HIS A   7      -2.991 -11.905 -36.765  0.00  0.00    +0.227 C 
ATOM     17  O   HIS A   7      -2.718 -12.812 -37.567  0.00  0.00    -0.286 OA
ENDBRANCH  15  16
BRANCH  15  18
ATOM     18  CB  HIS A   7      -0.980 -11.333 -35.342  0.00  0.00    +0.075 C 
BRANCH  18  19
ATOM     19  CG  HIS A   7      -0.943  -9.850 -35.547  0.00  0.00    +0.082 A 
ATOM     20  CD2 HIS A   7      -0.804  -8.855 -34.640  0.00  0.00    +0.115 A 
ATOM     21  NE2 HIS A   7      -0.821  -7.669 -35.346  0.00  0.00    -0.221 NA
ATOM     22  CE1 HIS A   7      -0.954  -7.982 -36.636  0.00  0.00    +0.199 A 
ATOM     23  ND1 HIS A   7      -1.019  -9.292 -36.814  0.00  0.00    -0.227 NA
ENDBRANCH  18  19
ENDBRANCH  15  18
ENDBRANCH  13  15
ENDBRANCH  10  11
BRANCH  10  24
ATOM     24  CB  LYS A   6      -4.077 -16.379 -34.439  0.00  0.00    +0.029 C 
BRANCH  24  25
ATOM     25  CG  LYS A   6      -4.696 -16.057 -35.819  0.00  0.00    +0.000 C 
BRANCH  25  26
ATOM     26  CD  LYS A   6      -3.857 -16.521 -37.025  0.00  0.00    -0.024 C 
BRANCH  26  27
ATOM     27  CE  LYS A   6      -4.561 -16.224 -38.336  0.00  0.00    -0.086 C 
BRANCH  27  28
ATOM     28  NZ  LYS A   6      -4.523 -14.773 -38.696  0.00  0.00    +0.380 N 
ATOM     29  HZ1 LYS A   6      -4.991 -14.220 -37.950  0.00  0.00    -0.089 HD
ATOM     30  HZ2 LYS A   6      -3.534 -14.466 -38.788  0.00  0.00    -0.089 HD
ATOM     31  HZ3 LYS A   6      -5.018 -14.628 -39.599  0.00  0.00    -0.089 HD
ENDBRANCH  27  28
ENDBRANCH  26  27
ENDBRANCH  25  26
ENDBRANCH  24  25
ENDBRANCH  10  24
ENDBRANCH   7  10
ENDBRANCH   5   6
BRANCH   5  32
ATOM     32  CB  THR A   5      -0.172 -15.912 -30.352  0.00  0.00    +0.137 C 
ATOM     33  CG2 THR A   5       1.209 -16.006 -31.043  0.00  0.00    +0.034 C 
BRANCH  32  34
ATOM     34  OG1 THR A   5      -0.705 -14.591 -30.460  0.00  0.00    -0.382 OA
ATOM     35  HG1 THR A   5      -1.531 -14.524 -29.919  0.00  0.00    +0.210 HD
ENDBRANCH  32  34
ENDBRANCH   5  32
ENDBRANCH   3   5
BRANCH   1  36
ATOM     36  CA  ILE A   4      -0.660 -20.216 -28.982  0.00  0.00    +0.149 C 
BRANCH  36  38
ATOM     37  C   VAL A   3       1.272 -19.878 -27.423  0.00  0.00    +0.241 C 
ATOM     38  N   ILE A   4      -0.051 -19.986 -27.652  0.00  0.00    -0.297 N 
ATOM     39  H   ILE A   4      -0.691 -19.902 -26.836  0.00  0.00    +0.150 HD
ATOM     40  O   VAL A   3       2.130 -20.003 -28.294  0.00  0.00    -0.273 OA
BRANCH  37  41
ATOM     41  CA  VAL A   3       1.703 -19.590 -25.983  0.00  0.00    +0.149 C 
BRANCH  41  44
ATOM     42  C   THR A   2       2.044 -21.502 -24.470  0.00  0.00    +0.243 C 
ATOM     43  O   THR A   2       1.052 -21.241 -23.795  0.00  0.00    -0.273 OA
ATOM     44  N   VAL A   3       2.422 -20.778 -25.514  0.00  0.00    -0.297 N 
ATOM     45  H   VAL A   3       3.277 -21.069 -26.029  0.00  0.00    +0.150 HD
BRANCH  42  46
ATOM     46  CA  THR A   2       2.913 -22.719 -24.125  0.00  0.00    +0.176 C 
BRANCH  46  48
ATOM     47  C   VAL A   1       4.427 -22.456 -22.177  0.00  0.00    +0.238 C 
ATOM     48  N   THR A   2       3.196 -22.625 -22.694  0.00  0.00    -0.295 N 
ATOM     49  H   THR A   2       2.395 -22.693 -22.034  0.00  0.00    +0.150 HD
ATOM     50  O   VAL A   1       5.453 -22.417 -22.854  0.00  0.00    -0.274 OA
BRANCH  47  51
ATOM     51  CA  VAL A   1       4.515 -22.296 -20.662  0.00  0.00    +0.145 C 
BRANCH  51  52
ATOM     52  CB  VAL A   1       4.795 -20.810 -20.238  0.00  0.00    +0.025 C 
ATOM     53  CG2 VAL A   1       4.941 -20.663 -18.719  0.00  0.00    +0.002 C 
ATOM     54  CG1 VAL A   1       3.691 -19.862 -20.745  0.00  0.00    +0.002 C 
ENDBRANCH  51  52
BRANCH  51  55
ATOM     55  N   VAL A   1       5.508 -23.264 -20.182  0.00  0.00    -0.238 NA
ATOM     56  H   VAL A   1       6.462 -23.241 -20.596  0.00  0.00    +0.142 HD
ENDBRANCH  51  55
ENDBRANCH  47  51
ENDBRANCH  46  48
BRANCH  46  57
ATOM     57  CB  THR A   2       2.234 -24.044 -24.502  0.00  0.00    +0.137 C 
ATOM     58  CG2 THR A   2       2.105 -24.217 -26.015  0.00  0.00    +0.034 C 
BRANCH  57  59
ATOM     59  OG1 THR A   2       2.998 -25.118 -23.973  0.00  0.00    -0.382 OA
ATOM     60  HG1 THR A   2       3.912 -25.089 -24.352  0.00  0.00    +0.210 HD
ENDBRANCH  57  59
ENDBRANCH  46  57
ENDBRANCH  42  46
ENDBRANCH  41  44
BRANCH  41  61
ATOM     61  CB  VAL A   3       2.559 -18.290 -25.837  0.00  0.00    +0.027 C 
ATOM     62  CG2 VAL A   3       2.928 -18.020 -24.378  0.00  0.00    +0.002 C 
ATOM     63  CG1 VAL A   3       1.854 -17.075 -26.442  0.00  0.00    +0.002 C 
ENDBRANCH  41  61
ENDBRANCH  37  41
ENDBRANCH  36  38
BRANCH  36  64
ATOM     64  CB  ILE A   4      -1.777 -21.313 -29.029  0.00  0.00    +0.027 C 
ATOM     65  CG2 ILE A   4      -2.234 -21.573 -30.498  0.00  0.00    +0.002 C 
BRANCH  64  66
ATOM     66  CG1 ILE A   4      -1.373 -22.647 -28.294  0.00  0.00    +0.002 C 
ATOM     67  CD1 ILE A   4      -0.257 -23.526 -28.872  0.00  0.00    +0.000 C 
ENDBRANCH  64  66
ENDBRANCH  36  64
ENDBRANCH   1  36
TORSDOF 29
REMARK  Name = ../refined-set-2016/4o05/4o05_pocket.pdb
REMARK  249 active torsions:
REMARK  status: ('A' for Active; 'I' for Inactive)
REMARK    1  A    between atoms: _1  and  _3
REMARK    2  A    between atoms: _3  and  _4
REMARK    3  A    between atoms: _3  and  _6
REMARK    4  A    between atoms: _6  and  _7
REMARK    5  A    between atoms: _13  and  _15
REMARK    6  A    between atoms: _15  and  _16
REMARK    7  A    between atoms: _15  and  _18
REMARK    8  A    between atoms: _18  and  _19
REMARK    9  A    between atoms: _19  and  _20
REMARK   10  A    between atoms: _25  and  _27
REMARK   11  A    between atoms: _27  and  _28
REMARK   12  A    between atoms: _27  and  _30
REMARK   13  A    between atoms: _30  and  _31
REMARK   14  A    between atoms: _34  and  _36
REMARK   15  A    between atoms: _36  and  _37
REMARK   16  A    between atoms: _36  and  _39
REMARK   17  A    between atoms: _39  and  _40
REMARK   18  A    between atoms: _40  and  _41
REMARK   19  A    between atoms: _44  and  _46
REMARK   20  A    between atoms: _46  and  _47
REMARK   21  A    between atoms: _46  and  _49
REMARK   22  A    between atoms: _49  and  _50
REMARK   23  A    between atoms: _53  and  _55
REMARK   24  A    between atoms: _55  and  _56
REMARK   25  A    between atoms: _55  and  _58
REMARK   26  A    between atoms: _58  and  _59
REMARK   27  A    between atoms: _62  and  _64
REMARK   28  A    between atoms: _64  and  _65
REMARK   29  A    between atoms: _64  and  _67
REMARK   30  A    between atoms: _67  and  _68
REMARK   31  A    between atoms: _70  and  _72
REMARK   32  A    between atoms: _72  and  _73
REMARK   33  A    between atoms: _72  and  _75
REMARK   34  A    between atoms: _75  and  _76
REMARK   35  A    between atoms: _81  and  _83
REMARK   36  A    between atoms: _83  and  _84
REMARK   37  A    between atoms: _83  and  _86
REMARK   38  A    between atoms: _86  and  _87
REMARK   39  A    between atoms: _89  and  _91
REMARK   40  A    between atoms: _91  and  _92
REMARK   41  A    between atoms: _91  and  _94
REMARK   42  A    between atoms: _94  and  _95
REMARK   43  A    between atoms: _97  and  _99
REMARK   44  A    between atoms: _99  and  _100
REMARK   45  A    between atoms: _99  and  _102
REMARK   46  A    between atoms: _102  and  _103
REMARK   47  A    between atoms: _106  and  _108
REMARK   48  A    between atoms: _108  and  _109
REMARK   49  A    between atoms: _112  and  _114
REMARK   50  A    between atoms: _114  and  _115
REMARK   51  A    between atoms: _114  and  _117
REMARK   52  A    between atoms: _117  and  _118
REMARK   53  A    between atoms: _121  and  _123
REMARK   54  A    between atoms: _123  and  _124
REMARK   55  A    between atoms: _123  and  _126
REMARK   56  A    between atoms: _126  and  _127
REMARK   57  A    between atoms: _127  and  _128
REMARK   58  A    between atoms: _128  and  _129
REMARK   59  A    between atoms: _129  and  _130
REMARK   60  A    between atoms: _134  and  _136
REMARK   61  A    between atoms: _136  and  _137
REMARK   62  A    between atoms: _136  and  _139
REMARK   63  A    between atoms: _139  and  _140
REMARK   64  A    between atoms: _143  and  _145
REMARK   65  A    between atoms: _145  and  _146
REMARK   66  A    between atoms: _145  and  _148
REMARK   67  A    between atoms: _148  and  _149
REMARK   68  A    between atoms: _152  and  _154
REMARK   69  A    between atoms: _154  and  _155
REMARK   70  A    between atoms: _154  and  _157
REMARK   71  A    between atoms: _160  and  _162
REMARK   72  A    between atoms: _162  and  _163
REMARK   73  A    between atoms: _162  and  _165
REMARK   74  A    between atoms: _165  and  _166
REMARK   75  A    between atoms: _169  and  _171
REMARK   76  A    between atoms: _171  and  _172
REMARK   77  A    between atoms: _171  and  _174
REMARK   78  A    between atoms: _174  and  _175
REMARK   79  A    between atoms: _178  and  _180
REMARK   80  A    between atoms: _180  and  _181
REMARK   81  A    between atoms: _183  and  _185
REMARK   82  A    between atoms: _185  and  _186
REMARK   83  A    between atoms: _185  and  _188
REMARK   84  A    between atoms: _188  and  _189
REMARK   85  A    between atoms: _192  and  _194
REMARK   86  A    between atoms: _194  and  _195
REMARK   87  A    between atoms: _197  and  _199
REMARK   88  A    between atoms: _199  and  _200
REMARK   89  A    between atoms: _199  and  _202
REMARK   90  A    between atoms: _202  and  _203
REMARK   91  A    between atoms: _203  and  _204
REMARK   92  A    between atoms: _206  and  _208
REMARK   93  A    between atoms: _208  and  _209
REMARK   94  A    between atoms: _208  and  _211
REMARK   95  A    between atoms: _211  and  _212
REMARK   96  A    between atoms: _215  and  _217
REMARK   97  A    between atoms: _217  and  _218
REMARK   98  A    between atoms: _217  and  _220
REMARK   99  A    between atoms: _220  and  _221
REMARK  100  A    between atoms: _221  and  _222
REMARK  101  A    between atoms: _222  and  _223
REMARK  102  A    between atoms: _223  and  _224
REMARK  103  A    between atoms: _228  and  _230
REMARK  104  A    between atoms: _230  and  _231
REMARK  105  A    between atoms: _234  and  _236
REMARK  106  A    between atoms: _236  and  _237
REMARK  107  A    between atoms: _236  and  _239
REMARK  108  A    between atoms: _239  and  _240
REMARK  109  A    between atoms: _243  and  _245
REMARK  110  A    between atoms: _245  and  _246
REMARK  111  A    between atoms: _245  and  _248
REMARK  112  A    between atoms: _248  and  _249
REMARK  113  A    between atoms: _252  and  _254
REMARK  114  A    between atoms: _254  and  _255
REMARK  115  A    between atoms: _254  and  _257
REMARK  116  A    between atoms: _257  and  _258
REMARK  117  A    between atoms: _261  and  _263
REMARK  118  A    between atoms: _263  and  _264
REMARK  119  A    between atoms: _263  and  _266
REMARK  120  A    between atoms: _266  and  _267
REMARK  121  A    between atoms: _272  and  _274
REMARK  122  A    between atoms: _274  and  _275
REMARK  123  A    between atoms: _274  and  _277
REMARK  124  A    between atoms: _277  and  _278
REMARK  125  A    between atoms: _283  and  _285
REMARK  126  A    between atoms: _285  and  _286
REMARK  127  A    between atoms: _285  and  _288
REMARK  128  A    between atoms: _288  and  _289
REMARK  129  A    between atoms: _292  and  _294
REMARK  130  A    between atoms: _294  and  _295
REMARK  131  A    between atoms: _297  and  _299
REMARK  132  A    between atoms: _299  and  _300
REMARK  133  A    between atoms: _299  and  _302
REMARK  134  A    between atoms: _302  and  _303
REMARK  135  A    between atoms: _306  and  _308
REMARK  136  A    between atoms: _308  and  _309
REMARK  137  A    between atoms: _308  and  _311
REMARK  138  A    between atoms: _311  and  _312
REMARK  139  A    between atoms: _315  and  _317
REMARK  140  A    between atoms: _317  and  _318
REMARK  141  A    between atoms: _321  and  _323
REMARK  142  A    between atoms: _323  and  _324
REMARK  143  A    between atoms: _323  and  _326
REMARK  144  A    between atoms: _326  and  _327
REMARK  145  A    between atoms: _327  and  _328
REMARK  146  A    between atoms: _328  and  _329
REMARK  147  A    between atoms: _329  and  _330
REMARK  148  A    between atoms: _334  and  _336
REMARK  149  A    between atoms: _336  and  _337
REMARK  150  A    between atoms: _339  and  _341
REMARK  151  A    between atoms: _341  and  _342
REMARK  152  A    between atoms: _341  and  _344
REMARK  153  A    between atoms: _344  and  _345
REMARK  154  A    between atoms: _348  and  _350
REMARK  155  A    between atoms: _350  and  _351
REMARK  156  A    between atoms: _353  and  _355
REMARK  157  A    between atoms: _355  and  _356
REMARK  158  A    between atoms: _355  and  _358
REMARK  159  A    between atoms: _358  and  _359
REMARK  160  A    between atoms: _365  and  _367
REMARK  161  A    between atoms: _367  and  _368
REMARK  162  A    between atoms: _370  and  _372
REMARK  163  A    between atoms: _372  and  _373
REMARK  164  A    between atoms: _372  and  _375
REMARK  165  A    between atoms: _378  and  _380
REMARK  166  A    between atoms: _380  and  _381
REMARK  167  A    between atoms: _383  and  _385
REMARK  168  A    between atoms: _385  and  _386
REMARK  169  A    between atoms: _385  and  _388
REMARK  170  A    between atoms: _388  and  _389
REMARK  171  A    between atoms: _395  and  _397
REMARK  172  A    between atoms: _397  and  _398
REMARK  173  A    between atoms: _397  and  _400
REMARK  174  A    between atoms: _400  and  _401
REMARK  175  A    between atoms: _406  and  _407
REMARK  176  A    between atoms: _409  and  _411
REMARK  177  A    between atoms: _411  and  _412
REMARK  178  A    between atoms: _411  and  _414
REMARK  179  A    between atoms: _414  and  _415
REMARK  180  A    between atoms: _420  and  _421
REMARK  181  A    between atoms: _423  and  _425
REMARK  182  A    between atoms: _425  and  _426
REMARK  183  A    between atoms: _425  and  _428
REMARK  184  A    between atoms: _431  and  _433
REMARK  185  A    between atoms: _433  and  _434
REMARK  186  A    between atoms: _433  and  _436
REMARK  187  A    between atoms: _436  and  _437
REMARK  188  A    between atoms: _440  and  _442
REMARK  189  A    between atoms: _442  and  _443
REMARK  190  A    between atoms: _442  and  _445
REMARK  191  A    between atoms: _448  and  _450
REMARK  192  A    between atoms: _450  and  _451
REMARK  193  A    between atoms: _450  and  _453
REMARK  194  A    between atoms: _453  and  _454
REMARK  195  A    between atoms: _457  and  _459
REMARK  196  A    between atoms: _459  and  _460
REMARK  197  A    between atoms: _459  and  _462
REMARK  198  A    between atoms: _462  and  _463
REMARK  199  A    between atoms: _466  and  _468
REMARK  200  A    between atoms: _468  and  _469
REMARK  201  A    between atoms: _468  and  _471
REMARK  202  A    between atoms: _471  and  _472
REMARK  203  A    between atoms: _472  and  _473
REMARK  204  A    between atoms: _473  and  _474
REMARK  205  A    between atoms: _474  and  _475
REMARK  206  A    between atoms: _479  and  _481
REMARK  207  A    between atoms: _481  and  _482
REMARK  208  A    between atoms: _481  and  _484
REMARK  209  A    between atoms: _484  and  _485
REMARK  210  A    between atoms: _490  and  _492
REMARK  211  A    between atoms: _492  and  _493
REMARK  212  A    between atoms: _492  and  _495
REMARK  213  A    between atoms: _495  and  _496
REMARK  214  A    between atoms: _506  and  _508
REMARK  215  A    between atoms: _508  and  _509
REMARK  216  A    between atoms: _508  and  _511
REMARK  217  A    between atoms: _511  and  _512
REMARK  218  A    between atoms: _512  and  _513
REMARK  219  A    between atoms: _516  and  _518
REMARK  220  A    between atoms: _518  and  _519
REMARK  221  A    between atoms: _518  and  _521
REMARK  222  A    between atoms: _521  and  _522
REMARK  223  A    between atoms: _524  and  _526
REMARK  224  A    between atoms: _526  and  _527
REMARK  225  A    between atoms: _526  and  _529
REMARK  226  A    between atoms: _529  and  _530
REMARK  227  A    between atoms: _536  and  _538
REMARK  228  A    between atoms: _538  and  _539
REMARK  229  A    between atoms: _538  and  _541
REMARK  230  A    between atoms: _541  and  _542
REMARK  231  A    between atoms: _545  and  _547
REMARK  232  A    between atoms: _547  and  _548
REMARK  233  A    between atoms: _547  and  _550
REMARK  234  A    between atoms: _553  and  _555
REMARK  235  A    between atoms: _555  and  _556
REMARK  236  A    between atoms: _558  and  _560
REMARK  237  A    between atoms: _560  and  _561
REMARK  238  A    between atoms: _560  and  _563
REMARK  239  A    between atoms: _563  and  _564
REMARK  240  A    between atoms: _567  and  _569
REMARK  241  A    between atoms: _569  and  _570
REMARK  242  A    between atoms: _569  and  _572
REMARK  243  A    between atoms: _572  and  _573
REMARK  244  A    between atoms: _573  and  _574
REMARK  245  A    between atoms: _574  and  _575
REMARK  246  A    between atoms: _575  and  _576
REMARK  247  A    between atoms: _580  and  _582
REMARK  248  A    between atoms: _582  and  _583
REMARK  249  A    between atoms: _582  and  _585
REMARK                            x       y       z     vdW  Elec       q    Type
REMARK                         _______ _______ _______ _____ _____    ______ ____
ROOT
ATOM      1  C   TRP A   1       5.749 -21.487 -27.393  0.00  0.00    +0.239 C 
ATOM      2  O   TRP A   1       4.680 -21.673 -26.807  0.00  0.00    -0.274 OA
ATOM      3  N   GLU A   2       6.907 -22.015 -26.973  0.00  0.00    -0.297 N 
ATOM      4  H   GLU A   2       7.780 -21.817 -27.502  0.00  0.00    +0.150 HD
ENDROOT
BRANCH   1   5
ATOM      5  CA  TRP A   1       5.781 -20.603 -28.634  0.00  0.00    +0.149 C 
BRANCH   5   6
ATOM      6  N   TRP A   1       4.537 -20.952 -29.334  0.00  0.00    -0.238 NA
ATOM      7  H   TRP A   1       3.652 -20.573 -28.941  0.00  0.00    +0.142 HD
ENDBRANCH   5   6
BRANCH   5   8
ATOM      8  CB  TRP A   1       5.784 -19.115 -28.225  0.00  0.00    +0.054 C 
BRANCH   8   9
ATOM      9  CG  TRP A   1       6.960 -18.617 -27.427  0.00  0.00    -0.002 A 
ATOM     10  CD2 TRP A   1       7.145 -18.708 -26.000  0.00  0.00    +0.013 A 
ATOM     11  CE3 TRP A   1       6.406 -19.291 -24.948  0.00  0.00    +0.001 A 
ATOM     12  CZ3 TRP A   1       6.896 -19.195 -23.644  0.00  0.00    +0.000 A 
ATOM     13  CH2 TRP A   1       8.092 -18.507 -23.368  0.00  0.00    +0.001 A 
ATOM     14  CZ2 TRP A   1       8.841 -17.925 -24.377  0.00  0.00    +0.017 A 
ATOM     15  CE2 TRP A   1       8.354 -18.037 -25.692  0.00  0.00    +0.056 A 
ATOM     16  NE1 TRP A   1       8.846 -17.527 -26.863  0.00  0.00    -0.352 N 
ATOM     17  HE1 TRP A   1       9.715 -16.963 -26.957  0.00  0.00    +0.166 HD
ATOM     18  CD1 TRP A   1       8.007 -17.880 -27.898  0.00  0.00    +0.068 A 
ENDBRANCH   8   9
ENDBRANCH   5   8
ENDBRANCH   1   5
BRANCH   3  19
ATOM     19  CA  GLU A   2       6.964 -22.866 -25.783  0.00  0.00    +0.149 C 
BRANCH  19  20
ATOM     20  C   GLU A   2       8.323 -22.800 -25.129  0.00  0.00    +0.241 C 
ATOM     21  N   SER A   3       8.343 -22.838 -23.774  0.00  0.00    -0.296 N 
ATOM     22  H   SER A   3       7.436 -22.860 -23.265  0.00  0.00    +0.150 HD
ATOM     23  O   GLU A   2       9.338 -22.732 -25.829  0.00  0.00    -0.273 OA
BRANCH  21  24
ATOM     24  CA  SER A   3       9.581 -22.849 -22.995  0.00  0.00    +0.166 C 
BRANCH  24  25
ATOM     25  C   SER A   3       9.388 -23.425 -21.613  0.00  0.00    +0.229 C 
ATOM     26  O   SER A   3       8.431 -23.082 -20.921  0.00  0.00    -0.286 OA
ENDBRANCH  24  25
BRANCH  24  27
ATOM     27  CB  SER A   3      10.227 -21.464 -22.911  0.00  0.00    +0.165 C 
BRANCH  27  28
ATOM     28  OG  SER A   3      11.470 -21.544 -22.226  0.00  0.00    -0.380 OA
ATOM     29  H   SER A   3      12.076 -22.156 -22.714  0.00  0.00    +0.211 HD
ENDBRANCH  27  28
ENDBRANCH  24  27
ENDBRANCH  21  24
ENDBRANCH  19  20
BRANCH  19  30
ATOM     30  CB  GLU A   2       6.613 -24.325 -26.162  0.00  0.00    +0.041 C 
BRANCH  30  31
ATOM     31  CG  GLU A   2       6.314 -25.262 -25.006  0.00  0.00    +0.116 C 
BRANCH  31  32
ATOM     32  CD  GLU A   2       5.784 -26.593 -25.494  0.00  0.00    +0.365 C 
ATOM     33  OE2 GLU A   2       4.547 -26.772 -25.477  0.00  0.00    -0.246 OA
ATOM     34  OE1 GLU A   2       6.598 -27.441 -25.926  0.00  0.00    -0.246 OA
ENDBRANCH  31  32
ENDBRANCH  30  31
ENDBRANCH  19  30
ENDBRANCH   3  19
TORSDOF 13
REMARK  Name = ../refined-set-2016/4o05/4o05_pocket.pdb
REMARK  249 active torsions:
REMARK  status: ('A' for Active; 'I' for Inactive)
REMARK    1  A    between atoms: _1  and  _3
REMARK    2  A    between atoms: _3  and  _4
REMARK    3  A    between atoms: _3  and  _6
REMARK    4  A    between atoms: _6  and  _7
REMARK    5  A    between atoms: _13  and  _15
REMARK    6  A    between atoms: _15  and  _16
REMARK    7  A    between atoms: _15  and  _18
REMARK    8  A    between atoms: _18  and  _19
REMARK    9  A    between atoms: _19  and  _20
REMARK   10  A    between atoms: _25  and  _27
REMARK   11  A    between atoms: _27  and  _28
REMARK   12  A    between atoms: _27  and  _30
REMARK   13  A    between atoms: _30  and  _31
REMARK   14  A    between atoms: _34  and  _36
REMARK   15  A    between atoms: _36  and  _37
REMARK   16  A    between atoms: _36  and  _39
REMARK   17  A    between atoms: _39  and  _40
REMARK   18  A    between atoms: _40  and  _41
REMARK   19  A    between atoms: _44  and  _46
REMARK   20  A    between atoms: _46  and  _47
REMARK   21  A    between atoms: _46  and  _49
REMARK   22  A    between atoms: _49  and  _50
REMARK   23  A    between atoms: _53  and  _55
REMARK   24  A    between atoms: _55  and  _56
REMARK   25  A    between atoms: _55  and  _58
REMARK   26  A    between atoms: _58  and  _59
REMARK   27  A    between atoms: _62  and  _64
REMARK   28  A    between atoms: _64  and  _65
REMARK   29  A    between atoms: _64  and  _67
REMARK   30  A    between atoms: _67  and  _68
REMARK   31  A    between atoms: _70  and  _72
REMARK   32  A    between atoms: _72  and  _73
REMARK   33  A    between atoms: _72  and  _75
REMARK   34  A    between atoms: _75  and  _76
REMARK   35  A    between atoms: _81  and  _83
REMARK   36  A    between atoms: _83  and  _84
REMARK   37  A    between atoms: _83  and  _86
REMARK   38  A    between atoms: _86  and  _87
REMARK   39  A    between atoms: _89  and  _91
REMARK   40  A    between atoms: _91  and  _92
REMARK   41  A    between atoms: _91  and  _94
REMARK   42  A    between atoms: _94  and  _95
REMARK   43  A    between atoms: _97  and  _99
REMARK   44  A    between atoms: _99  and  _100
REMARK   45  A    between atoms: _99  and  _102
REMARK   46  A    between atoms: _102  and  _103
REMARK   47  A    between atoms: _106  and  _108
REMARK   48  A    between atoms: _108  and  _109
REMARK   49  A    between atoms: _112  and  _114
REMARK   50  A    between atoms: _114  and  _115
REMARK   51  A    between atoms: _114  and  _117
REMARK   52  A    between atoms: _117  and  _118
REMARK   53  A    between atoms: _121  and  _123
REMARK   54  A    between atoms: _123  and  _124
REMARK   55  A    between atoms: _123  and  _126
REMARK   56  A    between atoms: _126  and  _127
REMARK   57  A    between atoms: _127  and  _128
REMARK   58  A    between atoms: _128  and  _129
REMARK   59  A    between atoms: _129  and  _130
REMARK   60  A    between atoms: _134  and  _136
REMARK   61  A    between atoms: _136  and  _137
REMARK   62  A    between atoms: _136  and  _139
REMARK   63  A    between atoms: _139  and  _140
REMARK   64  A    between atoms: _143  and  _145
REMARK   65  A    between atoms: _145  and  _146
REMARK   66  A    between atoms: _145  and  _148
REMARK   67  A    between atoms: _148  and  _149
REMARK   68  A    between atoms: _152  and  _154
REMARK   69  A    between atoms: _154  and  _155
REMARK   70  A    between atoms: _154  and  _157
REMARK   71  A    between atoms: _160  and  _162
REMARK   72  A    between atoms: _162  and  _163
REMARK   73  A    between atoms: _162  and  _165
REMARK   74  A    between atoms: _165  and  _166
REMARK   75  A    between atoms: _169  and  _171
REMARK   76  A    between atoms: _171  and  _172
REMARK   77  A    between atoms: _171  and  _174
REMARK   78  A    between atoms: _174  and  _175
REMARK   79  A    between atoms: _178  and  _180
REMARK   80  A    between atoms: _180  and  _181
REMARK   81  A    between atoms: _183  and  _185
REMARK   82  A    between atoms: _185  and  _186
REMARK   83  A    between atoms: _185  and  _188
REMARK   84  A    between atoms: _188  and  _189
REMARK   85  A    between atoms: _192  and  _194
REMARK   86  A    between atoms: _194  and  _195
REMARK   87  A    between atoms: _197  and  _199
REMARK   88  A    between atoms: _199  and  _200
REMARK   89  A    between atoms: _199  and  _202
REMARK   90  A    between atoms: _202  and  _203
REMARK   91  A    between atoms: _203  and  _204
REMARK   92  A    between atoms: _206  and  _208
REMARK   93  A    between atoms: _208  and  _209
REMARK   94  A    between atoms: _208  and  _211
REMARK   95  A    between atoms: _211  and  _212
REMARK   96  A    between atoms: _215  and  _217
REMARK   97  A    between atoms: _217  and  _218
REMARK   98  A    between atoms: _217  and  _220
REMARK   99  A    between atoms: _220  and  _221
REMARK  100  A    between atoms: _221  and  _222
REMARK  101  A    between atoms: _222  and  _223
REMARK  102  A    between atoms: _223  and  _224
REMARK  103  A    between atoms: _228  and  _230
REMARK  104  A    between atoms: _230  and  _231
REMARK  105  A    between atoms: _234  and  _236
REMARK  106  A    between atoms: _236  and  _237
REMARK  107  A    between atoms: _236  and  _239
REMARK  108  A    between atoms: _239  and  _240
REMARK  109  A    between atoms: _243  and  _245
REMARK  110  A    between atoms: _245  and  _246
REMARK  111  A    between atoms: _245  and  _248
REMARK  112  A    between atoms: _248  and  _249
REMARK  113  A    between atoms: _252  and  _254
REMARK  114  A    between atoms: _254  and  _255
REMARK  115  A    between atoms: _254  and  _257
REMARK  116  A    between atoms: _257  and  _258
REMARK  117  A    between atoms: _261  and  _263
REMARK  118  A    between atoms: _263  and  _264
REMARK  119  A    between atoms: _263  and  _266
REMARK  120  A    between atoms: _266  and  _267
REMARK  121  A    between atoms: _272  and  _274
REMARK  122  A    between atoms: _274  and  _275
REMARK  123  A    between atoms: _274  and  _277
REMARK  124  A    between atoms: _277  and  _278
REMARK  125  A    between atoms: _283  and  _285
REMARK  126  A    between atoms: _285  and  _286
REMARK  127  A    between atoms: _285  and  _288
REMARK  128  A    between atoms: _288  and  _289
REMARK  129  A    between atoms: _292  and  _294
REMARK  130  A    between atoms: _294  and  _295
REMARK  131  A    between atoms: _297  and  _299
REMARK  132  A    between atoms: _299  and  _300
REMARK  133  A    between atoms: _299  and  _302
REMARK  134  A    between atoms: _302  and  _303
REMARK  135  A    between atoms: _306  and  _308
REMARK  136  A    between atoms: _308  and  _309
REMARK  137  A    between atoms: _308  and  _311
REMARK  138  A    between atoms: _311  and  _312
REMARK  139  A    between atoms: _315  and  _317
REMARK  140  A    between atoms: _317  and  _318
REMARK  141  A    between atoms: _321  and  _323
REMARK  142  A    between atoms: _323  and  _324
REMARK  143  A    between atoms: _323  and  _326
REMARK  144  A    between atoms: _326  and  _327
REMARK  145  A    between atoms: _327  and  _328
REMARK  146  A    between atoms: _328  and  _329
REMARK  147  A    between atoms: _329  and  _330
REMARK  148  A    between atoms: _334  and  _336
REMARK  149  A    between atoms: _336  and  _337
REMARK  150  A    between atoms: _339  and  _341
REMARK  151  A    between atoms: _341  and  _342
REMARK  152  A    between atoms: _341  and  _344
REMARK  153  A    between atoms: _344  and  _345
REMARK  154  A    between atoms: _348  and  _350
REMARK  155  A    between atoms: _350  and  _351
REMARK  156  A    between atoms: _353  and  _355
REMARK  157  A    between atoms: _355  and  _356
REMARK  158  A    between atoms: _355  and  _358
REMARK  159  A    between atoms: _358  and  _359
REMARK  160  A    between atoms: _365  and  _367
REMARK  161  A    between atoms: _367  and  _368
REMARK  162  A    between atoms: _370  and  _372
REMARK  163  A    between atoms: _372  and  _373
REMARK  164  A    between atoms: _372  and  _375
REMARK  165  A    between atoms: _378  and  _380
REMARK  166  A    between atoms: _380  and  _381
REMARK  167  A    between atoms: _383  and  _385
REMARK  168  A    between atoms: _385  and  _386
REMARK  169  A    between atoms: _385  and  _388
REMARK  170  A    between atoms: _388  and  _389
REMARK  171  A    between atoms: _395  and  _397
REMARK  172  A    between atoms: _397  and  _398
REMARK  173  A    between atoms: _397  and  _400
REMARK  174  A    between atoms: _400  and  _401
REMARK  175  A    between atoms: _406  and  _407
REMARK  176  A    between atoms: _409  and  _411
REMARK  177  A    between atoms: _411  and  _412
REMARK  178  A    between atoms: _411  and  _414
REMARK  179  A    between atoms: _414  and  _415
REMARK  180  A    between atoms: _420  and  _421
REMARK  181  A    between atoms: _423  and  _425
REMARK  182  A    between atoms: _425  and  _426
REMARK  183  A    between atoms: _425  and  _428
REMARK  184  A    between atoms: _431  and  _433
REMARK  185  A    between atoms: _433  and  _434
REMARK  186  A    between atoms: _433  and  _436
REMARK  187  A    between atoms: _436  and  _437
REMARK  188  A    between atoms: _440  and  _442
REMARK  189  A    between atoms: _442  and  _443
REMARK  190  A    between atoms: _442  and  _445
REMARK  191  A    between atoms: _448  and  _450
REMARK  192  A    between atoms: _450  and  _451
REMARK  193  A    between atoms: _450  and  _453
REMARK  194  A    between atoms: _453  and  _454
REMARK  195  A    between atoms: _457  and  _459
REMARK  196  A    between atoms: _459  and  _460
REMARK  197  A    between atoms: _459  and  _462
REMARK  198  A    between atoms: _462  and  _463
REMARK  199  A    between atoms: _466  and  _468
REMARK  200  A    between atoms: _468  and  _469
REMARK  201  A    between atoms: _468  and  _471
REMARK  202  A    between atoms: _471  and  _472
REMARK  203  A    between atoms: _472  and  _473
REMARK  204  A    between atoms: _473  and  _474
REMARK  205  A    between atoms: _474  and  _475
REMARK  206  A    between atoms: _479  and  _481
REMARK  207  A    between atoms: _481  and  _482
REMARK  208  A    between atoms: _481  and  _484
REMARK  209  A    between atoms: _484  and  _485
REMARK  210  A    between atoms: _490  and  _492
REMARK  211  A    between atoms: _492  and  _493
REMARK  212  A    between atoms: _492  and  _495
REMARK  213  A    between atoms: _495  and  _496
REMARK  214  A    between atoms: _506  and  _508
REMARK  215  A    between atoms: _508  and  _509
REMARK  216  A    between atoms: _508  and  _511
REMARK  217  A    between atoms: _511  and  _512
REMARK  218  A    between atoms: _512  and  _513
REMARK  219  A    between atoms: _516  and  _518
REMARK  220  A    between atoms: _518  and  _519
REMARK  221  A    between atoms: _518  and  _521
REMARK  222  A    between atoms: _521  and  _522
REMARK  223  A    between atoms: _524  and  _526
REMARK  224  A    between atoms: _526  and  _527
REMARK  225  A    between atoms: _526  and  _529
REMARK  226  A    between atoms: _529  and  _530
REMARK  227  A    between atoms: _536  and  _538
REMARK  228  A    between atoms: _538  and  _539
REMARK  229  A    between atoms: _538  and  _541
REMARK  230  A    between atoms: _541  and  _542
REMARK  231  A    between atoms: _545  and  _547
REMARK  232  A    between atoms: _547  and  _548
REMARK  233  A    between atoms: _547  and  _550
REMARK  234  A    between atoms: _553  and  _555
REMARK  235  A    between atoms: _555  and  _556
REMARK  236  A    between atoms: _558  and  _560
REMARK  237  A    between atoms: _560  and  _561
REMARK  238  A    between atoms: _560  and  _563
REMARK  239  A    between atoms: _563  and  _564
REMARK  240  A    between atoms: _567  and  _569
REMARK  241  A    between atoms: _569  and  _570
REMARK  242  A    between atoms: _569  and  _572
REMARK  243  A    between atoms: _572  and  _573
REMARK  244  A    between atoms: _573  and  _574
REMARK  245  A    between atoms: _574  and  _575
REMARK  246  A    between atoms: _575  and  _576
REMARK  247  A    between atoms: _580  and  _582
REMARK  248  A    between atoms: _582  and  _583
REMARK  249  A    between atoms: _582  and  _585
REMARK                            x       y       z     vdW  Elec       q    Type
REMARK                         _______ _______ _______ _____ _____    ______ ____
ROOT
ATOM      1  CA  THR A   2      10.743 -23.055 -29.470  0.00  0.00    +0.176 C 
ENDROOT
BRANCH   1   3
ATOM      2  C   PHE A   1      12.241 -22.032 -27.800  0.00  0.00    +0.239 C 
ATOM      3  N   THR A   2      11.057 -22.552 -28.129  0.00  0.00    -0.295 N 
ATOM      4  H   THR A   2      10.320 -22.603 -27.397  0.00  0.00    +0.150 HD
ATOM      5  O   PHE A   1      13.190 -21.922 -28.586  0.00  0.00    -0.274 OA
BRANCH   2   6
ATOM      6  CA  PHE A   1      12.376 -21.524 -26.380  0.00  0.00    +0.149 C 
BRANCH   6   7
ATOM      7  N   PHE A   1      13.788 -21.504 -26.032  0.00  0.00    -0.238 NA
ATOM      8  H   PHE A   1      14.461 -21.205 -26.766  0.00  0.00    +0.142 HD
ENDBRANCH   6   7
BRANCH   6   9
ATOM      9  CB  PHE A   1      11.693 -20.151 -26.200  0.00  0.00    +0.053 C 
BRANCH   9  10
ATOM     10  CG  PHE A   1      12.167 -19.026 -27.089  0.00  0.00    -0.020 A 
ATOM     11  CD2 PHE A   1      13.243 -18.225 -26.712  0.00  0.00    -0.004 A 
ATOM     12  CE2 PHE A   1      13.674 -17.165 -27.531  0.00  0.00    -0.000 A 
ATOM     13  CZ  PHE A   1      13.016 -16.899 -28.723  0.00  0.00    -0.000 A 
ATOM     14  CE1 PHE A   1      11.955 -17.698 -29.121  0.00  0.00    -0.000 A 
ATOM     15  CD1 PHE A   1      11.527 -18.754 -28.301  0.00  0.00    -0.004 A 
ENDBRANCH   9  10
ENDBRANCH   6   9
ENDBRANCH   2   6
ENDBRANCH   1   3
BRANCH   1  16
ATOM     16  C   THR A   2       9.595 -22.271 -30.080  0.00  0.00    +0.243 C 
ATOM     17  O   THR A   2       8.721 -21.798 -29.348  0.00  0.00    -0.273 OA
ATOM     18  N   VAL A   3       9.605 -22.136 -31.417  0.00  0.00    -0.298 N 
ATOM     19  H   VAL A   3      10.422 -22.522 -31.931  0.00  0.00    +0.150 HD
BRANCH  18  20
ATOM     20  CA  VAL A   3       8.552 -21.486 -32.209  0.00  0.00    +0.137 C 
BRANCH  20  21
ATOM     21  CB  VAL A   3       8.832 -20.011 -32.660  0.00  0.00    +0.026 C 
ATOM     22  CG2 VAL A   3       9.136 -19.098 -31.471  0.00  0.00    +0.002 C 
ATOM     23  CG1 VAL A   3       7.649 -19.433 -33.460  0.00  0.00    +0.002 C 
ENDBRANCH  20  21
BRANCH  20  24
ATOM     24  C   VAL A   3       8.278 -22.432 -33.399  0.00  0.00    +0.227 C 
ATOM     25  O   VAL A   3       9.211 -22.836 -34.102  0.00  0.00    -0.286 OA
ENDBRANCH  20  24
ENDBRANCH  18  20
ENDBRANCH   1  16
BRANCH   1  26
ATOM     26  CB  THR A   2      10.392 -24.544 -29.458  0.00  0.00    +0.137 C 
ATOM     27  CG2 THR A   2      11.544 -25.438 -28.978  0.00  0.00    +0.034 C 
BRANCH  26  28
ATOM     28  OG1 THR A   2       9.194 -24.755 -28.703  0.00  0.00    -0.382 OA
ATOM     29  HG1 THR A   2       8.451 -24.247 -29.116  0.00  0.00    +0.210 HD
ENDBRANCH  26  28
ENDBRANCH   1  26
TORSDOF 11
REMARK  Name = ../refined-set-2016/4o05/4o05_pocket.pdb
REMARK  249 active torsions:
REMARK  status: ('A' for Active; 'I' for Inactive)
REMARK    1  A    between atoms: _1  and  _3
REMARK    2  A    between atoms: _3  and  _4
REMARK    3  A    between atoms: _3  and  _6
REMARK    4  A    between atoms: _6  and  _7
REMARK    5  A    between atoms: _13  and  _15
REMARK    6  A    between atoms: _15  and  _16
REMARK    7  A    between atoms: _15  and  _18
REMARK    8  A    between atoms: _18  and  _19
REMARK    9  A    between atoms: _19  and  _20
REMARK   10  A    between atoms: _25  and  _27
REMARK   11  A    between atoms: _27  and  _28
REMARK   12  A    between atoms: _27  and  _30
REMARK   13  A    between atoms: _30  and  _31
REMARK   14  A    between atoms: _34  and  _36
REMARK   15  A    between atoms: _36  and  _37
REMARK   16  A    between atoms: _36  and  _39
REMARK   17  A    between atoms: _39  and  _40
REMARK   18  A    between atoms: _40  and  _41
REMARK   19  A    between atoms: _44  and  _46
REMARK   20  A    between atoms: _46  and  _47
REMARK   21  A    between atoms: _46  and  _49
REMARK   22  A    between atoms: _49  and  _50
REMARK   23  A    between atoms: _53  and  _55
REMARK   24  A    between atoms: _55  and  _56
REMARK   25  A    between atoms: _55  and  _58
REMARK   26  A    between atoms: _58  and  _59
REMARK   27  A    between atoms: _62  and  _64
REMARK   28  A    between atoms: _64  and  _65
REMARK   29  A    between atoms: _64  and  _67
REMARK   30  A    between atoms: _67  and  _68
REMARK   31  A    between atoms: _70  and  _72
REMARK   32  A    between atoms: _72  and  _73
REMARK   33  A    between atoms: _72  and  _75
REMARK   34  A    between atoms: _75  and  _76
REMARK   35  A    between atoms: _81  and  _83
REMARK   36  A    between atoms: _83  and  _84
REMARK   37  A    between atoms: _83  and  _86
REMARK   38  A    between atoms: _86  and  _87
REMARK   39  A    between atoms: _89  and  _91
REMARK   40  A    between atoms: _91  and  _92
REMARK   41  A    between atoms: _91  and  _94
REMARK   42  A    between atoms: _94  and  _95
REMARK   43  A    between atoms: _97  and  _99
REMARK   44  A    between atoms: _99  and  _100
REMARK   45  A    between atoms: _99  and  _102
REMARK   46  A    between atoms: _102  and  _103
REMARK   47  A    between atoms: _106  and  _108
REMARK   48  A    between atoms: _108  and  _109
REMARK   49  A    between atoms: _112  and  _114
REMARK   50  A    between atoms: _114  and  _115
REMARK   51  A    between atoms: _114  and  _117
REMARK   52  A    between atoms: _117  and  _118
REMARK   53  A    between atoms: _121  and  _123
REMARK   54  A    between atoms: _123  and  _124
REMARK   55  A    between atoms: _123  and  _126
REMARK   56  A    between atoms: _126  and  _127
REMARK   57  A    between atoms: _127  and  _128
REMARK   58  A    between atoms: _128  and  _129
REMARK   59  A    between atoms: _129  and  _130
REMARK   60  A    between atoms: _134  and  _136
REMARK   61  A    between atoms: _136  and  _137
REMARK   62  A    between atoms: _136  and  _139
REMARK   63  A    between atoms: _139  and  _140
REMARK   64  A    between atoms: _143  and  _145
REMARK   65  A    between atoms: _145  and  _146
REMARK   66  A    between atoms: _145  and  _148
REMARK   67  A    between atoms: _148  and  _149
REMARK   68  A    between atoms: _152  and  _154
REMARK   69  A    between atoms: _154  and  _155
REMARK   70  A    between atoms: _154  and  _157
REMARK   71  A    between atoms: _160  and  _162
REMARK   72  A    between atoms: _162  and  _163
REMARK   73  A    between atoms: _162  and  _165
REMARK   74  A    between atoms: _165  and  _166
REMARK   75  A    between atoms: _169  and  _171
REMARK   76  A    between atoms: _171  and  _172
REMARK   77  A    between atoms: _171  and  _174
REMARK   78  A    between atoms: _174  and  _175
REMARK   79  A    between atoms: _178  and  _180
REMARK   80  A    between atoms: _180  and  _181
REMARK   81  A    between atoms: _183  and  _185
REMARK   82  A    between atoms: _185  and  _186
REMARK   83  A    between atoms: _185  and  _188
REMARK   84  A    between atoms: _188  and  _189
REMARK   85  A    between atoms: _192  and  _194
REMARK   86  A    between atoms: _194  and  _195
REMARK   87  A    between atoms: _197  and  _199
REMARK   88  A    between atoms: _199  and  _200
REMARK   89  A    between atoms: _199  and  _202
REMARK   90  A    between atoms: _202  and  _203
REMARK   91  A    between atoms: _203  and  _204
REMARK   92  A    between atoms: _206  and  _208
REMARK   93  A    between atoms: _208  and  _209
REMARK   94  A    between atoms: _208  and  _211
REMARK   95  A    between atoms: _211  and  _212
REMARK   96  A    between atoms: _215  and  _217
REMARK   97  A    between atoms: _217  and  _218
REMARK   98  A    between atoms: _217  and  _220
REMARK   99  A    between atoms: _220  and  _221
REMARK  100  A    between atoms: _221  and  _222
REMARK  101  A    between atoms: _222  and  _223
REMARK  102  A    between atoms: _223  and  _224
REMARK  103  A    between atoms: _228  and  _230
REMARK  104  A    between atoms: _230  and  _231
REMARK  105  A    between atoms: _234  and  _236
REMARK  106  A    between atoms: _236  and  _237
REMARK  107  A    between atoms: _236  and  _239
REMARK  108  A    between atoms: _239  and  _240
REMARK  109  A    between atoms: _243  and  _245
REMARK  110  A    between atoms: _245  and  _246
REMARK  111  A    between atoms: _245  and  _248
REMARK  112  A    between atoms: _248  and  _249
REMARK  113  A    between atoms: _252  and  _254
REMARK  114  A    between atoms: _254  and  _255
REMARK  115  A    between atoms: _254  and  _257
REMARK  116  A    between atoms: _257  and  _258
REMARK  117  A    between atoms: _261  and  _263
REMARK  118  A    between atoms: _263  and  _264
REMARK  119  A    between atoms: _263  and  _266
REMARK  120  A    between atoms: _266  and  _267
REMARK  121  A    between atoms: _272  and  _274
REMARK  122  A    between atoms: _274  and  _275
REMARK  123  A    between atoms: _274  and  _277
REMARK  124  A    between atoms: _277  and  _278
REMARK  125  A    between atoms: _283  and  _285
REMARK  126  A    between atoms: _285  and  _286
REMARK  127  A    between atoms: _285  and  _288
REMARK  128  A    between atoms: _288  and  _289
REMARK  129  A    between atoms: _292  and  _294
REMARK  130  A    between atoms: _294  and  _295
REMARK  131  A    between atoms: _297  and  _299
REMARK  132  A    between atoms: _299  and  _300
REMARK  133  A    between atoms: _299  and  _302
REMARK  134  A    between atoms: _302  and  _303
REMARK  135  A    between atoms: _306  and  _308
REMARK  136  A    between atoms: _308  and  _309
REMARK  137  A    between atoms: _308  and  _311
REMARK  138  A    between atoms: _311  and  _312
REMARK  139  A    between atoms: _315  and  _317
REMARK  140  A    between atoms: _317  and  _318
REMARK  141  A    between atoms: _321  and  _323
REMARK  142  A    between atoms: _323  and  _324
REMARK  143  A    between atoms: _323  and  _326
REMARK  144  A    between atoms: _326  and  _327
REMARK  145  A    between atoms: _327  and  _328
REMARK  146  A    between atoms: _328  and  _329
REMARK  147  A    between atoms: _329  and  _330
REMARK  148  A    between atoms: _334  and  _336
REMARK  149  A    between atoms: _336  and  _337
REMARK  150  A    between atoms: _339  and  _341
REMARK  151  A    between atoms: _341  and  _342
REMARK  152  A    between atoms: _341  and  _344
REMARK  153  A    between atoms: _344  and  _345
REMARK  154  A    between atoms: _348  and  _350
REMARK  155  A    between atoms: _350  and  _351
REMARK  156  A    between atoms: _353  and  _355
REMARK  157  A    between atoms: _355  and  _356
REMARK  158  A    between atoms: _355  and  _358
REMARK  159  A    between atoms: _358  and  _359
REMARK  160  A    between atoms: _365  and  _367
REMARK  161  A    between atoms: _367  and  _368
REMARK  162  A    between atoms: _370  and  _372
REMARK  163  A    between atoms: _372  and  _373
REMARK  164  A    between atoms: _372  and  _375
REMARK  165  A    between atoms: _378  and  _380
REMARK  166  A    between atoms: _380  and  _381
REMARK  167  A    between atoms: _383  and  _385
REMARK  168  A    between atoms: _385  and  _386
REMARK  169  A    between atoms: _385  and  _388
REMARK  170  A    between atoms: _388  and  _389
REMARK  171  A    between atoms: _395  and  _397
REMARK  172  A    between atoms: _397  and  _398
REMARK  173  A    between atoms: _397  and  _400
REMARK  174  A    between atoms: _400  and  _401
REMARK  175  A    between atoms: _406  and  _407
REMARK  176  A    between atoms: _409  and  _411
REMARK  177  A    between atoms: _411  and  _412
REMARK  178  A    between atoms: _411  and  _414
REMARK  179  A    between atoms: _414  and  _415
REMARK  180  A    between atoms: _420  and  _421
REMARK  181  A    between atoms: _423  and  _425
REMARK  182  A    between atoms: _425  and  _426
REMARK  183  A    between atoms: _425  and  _428
REMARK  184  A    between atoms: _431  and  _433
REMARK  185  A    between atoms: _433  and  _434
REMARK  186  A    between atoms: _433  and  _436
REMARK  187  A    between atoms: _436  and  _437
REMARK  188  A    between atoms: _440  and  _442
REMARK  189  A    between atoms: _442  and  _443
REMARK  190  A    between atoms: _442  and  _445
REMARK  191  A    between atoms: _448  and  _450
REMARK  192  A    between atoms: _450  and  _451
REMARK  193  A    between atoms: _450  and  _453
REMARK  194  A    between atoms: _453  and  _454
REMARK  195  A    between atoms: _457  and  _459
REMARK  196  A    between atoms: _459  and  _460
REMARK  197  A    between atoms: _459  and  _462
REMARK  198  A    between atoms: _462  and  _463
REMARK  199  A    between atoms: _466  and  _468
REMARK  200  A    between atoms: _468  and  _469
REMARK  201  A    between atoms: _468  and  _471
REMARK  202  A    between atoms: _471  and  _472
REMARK  203  A    between atoms: _472  and  _473
REMARK  204  A    between atoms: _473  and  _474
REMARK  205  A    between atoms: _474  and  _475
REMARK  206  A    between atoms: _479  and  _481
REMARK  207  A    between atoms: _481  and  _482
REMARK  208  A    between atoms: _481  and  _484
REMARK  209  A    between atoms: _484  and  _485
REMARK  210  A    between atoms: _490  and  _492
REMARK  211  A    between atoms: _492  and  _493
REMARK  212  A    between atoms: _492  and  _495
REMARK  213  A    between atoms: _495  and  _496
REMARK  214  A    between atoms: _506  and  _508
REMARK  215  A    between atoms: _508  and  _509
REMARK  216  A    between atoms: _508  and  _511
REMARK  217  A    between atoms: _511  and  _512
REMARK  218  A    between atoms: _512  and  _513
REMARK  219  A    between atoms: _516  and  _518
REMARK  220  A    between atoms: _518  and  _519
REMARK  221  A    between atoms: _518  and  _521
REMARK  222  A    between atoms: _521  and  _522
REMARK  223  A    between atoms: _524  and  _526
REMARK  224  A    between atoms: _526  and  _527
REMARK  225  A    between atoms: _526  and  _529
REMARK  226  A    between atoms: _529  and  _530
REMARK  227  A    between atoms: _536  and  _538
REMARK  228  A    between atoms: _538  and  _539
REMARK  229  A    between atoms: _538  and  _541
REMARK  230  A    between atoms: _541  and  _542
REMARK  231  A    between atoms: _545  and  _547
REMARK  232  A    between atoms: _547  and  _548
REMARK  233  A    between atoms: _547  and  _550
REMARK  234  A    between atoms: _553  and  _555
REMARK  235  A    between atoms: _555  and  _556
REMARK  236  A    between atoms: _558  and  _560
REMARK  237  A    between atoms: _560  and  _561
REMARK  238  A    between atoms: _560  and  _563
REMARK  239  A    between atoms: _563  and  _564
REMARK  240  A    between atoms: _567  and  _569
REMARK  241  A    between atoms: _569  and  _570
REMARK  242  A    between atoms: _569  and  _572
REMARK  243  A    between atoms: _572  and  _573
REMARK  244  A    between atoms: _573  and  _574
REMARK  245  A    between atoms: _574  and  _575
REMARK  246  A    between atoms: _575  and  _576
REMARK  247  A    between atoms: _580  and  _582
REMARK  248  A    between atoms: _582  and  _583
REMARK  249  A    between atoms: _582  and  _585
REMARK                            x       y       z     vdW  Elec       q    Type
REMARK                         _______ _______ _______ _____ _____    ______ ____
ROOT
ATOM      1  CA  LYS A   3      -3.908 -18.745 -25.391  0.00  0.00    +0.149 C 
ENDROOT
BRANCH   1   4
ATOM      2  C   THR A   2      -4.201 -16.510 -26.500  0.00  0.00    +0.243 C 
ATOM      3  O   THR A   2      -5.110 -16.121 -25.770  0.00  0.00    -0.273 OA
ATOM      4  N   LYS A   3      -3.618 -17.726 -26.402  0.00  0.00    -0.297 N 
ATOM      5  H   LYS A   3      -2.895 -17.960 -27.112  0.00  0.00    +0.150 HD
BRANCH   2   6
ATOM      6  CA  THR A   2      -3.646 -15.586 -27.576  0.00  0.00    +0.176 C 
BRANCH   6   8
ATOM      7  C   GLY A   1      -4.739 -14.559 -29.542  0.00  0.00    +0.240 C 
ATOM      8  N   THR A   2      -4.693 -14.786 -28.216  0.00  0.00    -0.295 N 
ATOM      9  H   THR A   2      -5.437 -14.374 -27.617  0.00  0.00    +0.150 HD
ATOM     10  O   GLY A   1      -3.937 -15.039 -30.353  0.00  0.00    -0.274 OA
BRANCH   7  11
ATOM     11  CA  GLY A   1      -5.849 -13.652 -30.000  0.00  0.00    +0.169 C 
BRANCH  11  12
ATOM     12  N   GLY A   1      -6.125 -13.704 -31.427  0.00  0.00    -0.236 NA
ATOM     13  H   GLY A   1      -5.336 -13.620 -32.100  0.00  0.00    +0.142 HD
ENDBRANCH  11  12
ENDBRANCH   7  11
ENDBRANCH   6   8
BRANCH   6  14
ATOM     14  CB  THR A   2      -2.591 -14.595 -27.000  0.00  0.00    +0.137 C 
ATOM     15  CG2 THR A   2      -1.392 -15.282 -26.335  0.00  0.00    +0.034 C 
BRANCH  14  16
ATOM     16  OG1 THR A   2      -2.114 -13.759 -28.053  0.00  0.00    -0.382 OA
ATOM     17  HG1 THR A   2      -1.698 -14.319 -28.755  0.00  0.00    +0.210 HD
ENDBRANCH  14  16
ENDBRANCH   6  14
ENDBRANCH   2   6
ENDBRANCH   1   4
BRANCH   1  18
ATOM     18  C   LYS A   3      -2.577 -18.945 -24.667  0.00  0.00    +0.241 C 
ATOM     19  N   VAL A   4      -2.557 -18.747 -23.343  0.00  0.00    -0.298 N 
ATOM     20  H   VAL A   4      -3.428 -18.427 -22.873  0.00  0.00    +0.150 HD
ATOM     21  O   LYS A   3      -1.577 -19.267 -25.319  0.00  0.00    -0.273 OA
BRANCH  19  22
ATOM     22  CA  VAL A   4      -1.353 -18.963 -22.525  0.00  0.00    +0.137 C 
BRANCH  22  23
ATOM     23  CB  VAL A   4      -0.947 -17.747 -21.630  0.00  0.00    +0.026 C 
ATOM     24  CG2 VAL A   4       0.247 -18.087 -20.734  0.00  0.00    +0.002 C 
ATOM     25  CG1 VAL A   4      -0.637 -16.517 -22.477  0.00  0.00    +0.002 C 
ENDBRANCH  22  23
BRANCH  22  26
ATOM     26  C   VAL A   4      -1.691 -20.214 -21.714  0.00  0.00    +0.227 C 
ATOM     27  O   VAL A   4      -2.610 -20.180 -20.900  0.00  0.00    -0.286 OA
ENDBRANCH  22  26
ENDBRANCH  19  22
ENDBRANCH   1  18
BRANCH   1  28
ATOM     28  CB  LYS A   3      -4.326 -20.105 -26.003  0.00  0.00    +0.029 C 
BRANCH  28  29
ATOM     29  CG  LYS A   3      -5.725 -20.192 -26.557  0.00  0.00    +0.000 C 
BRANCH  29  30
ATOM     30  CD  LYS A   3      -6.006 -21.615 -27.022  0.00  0.00    -0.024 C 
BRANCH  30  31
ATOM     31  CE  LYS A   3      -7.317 -21.733 -27.756  0.00  0.00    -0.086 C 
BRANCH  31  32
ATOM     32  NZ  LYS A   3      -7.630 -23.148 -28.086  0.00  0.00    +0.380 N 
ATOM     33  HZ1 LYS A   3      -7.692 -23.702 -27.208  0.00  0.00    -0.089 HD
ATOM     34  HZ2 LYS A   3      -8.538 -23.192 -28.590  0.00  0.00    -0.089 HD
ATOM     35  HZ3 LYS A   3      -6.878 -23.537 -28.690  0.00  0.00    -0.089 HD
ENDBRANCH  31  32
ENDBRANCH  30  31
ENDBRANCH  29  30
ENDBRANCH  28  29
ENDBRANCH   1  28
TORSDOF 16
REMARK  Name = ../refined-set-2016/4o05/4o05_pocket.pdb
REMARK  249 active torsions:
REMARK  status: ('A' for Active; 'I' for Inactive)
REMARK    1  A    between atoms: _1  and  _3
REMARK    2  A    between atoms: _3  and  _4
REMARK    3  A    between atoms: _3  and  _6
REMARK    4  A    between atoms: _6  and  _7
REMARK    5  A    between atoms: _13  and  _15
REMARK    6  A    between atoms: _15  and  _16
REMARK    7  A    between atoms: _15  and  _18
REMARK    8  A    between atoms: _18  and  _19
REMARK    9  A    between atoms: _19  and  _20
REMARK   10  A    between atoms: _25  and  _27
REMARK   11  A    between atoms: _27  and  _28
REMARK   12  A    between atoms: _27  and  _30
REMARK   13  A    between atoms: _30  and  _31
REMARK   14  A    between atoms: _34  and  _36
REMARK   15  A    between atoms: _36  and  _37
REMARK   16  A    between atoms: _36  and  _39
REMARK   17  A    between atoms: _39  and  _40
REMARK   18  A    between atoms: _40  and  _41
REMARK   19  A    between atoms: _44  and  _46
REMARK   20  A    between atoms: _46  and  _47
REMARK   21  A    between atoms: _46  and  _49
REMARK   22  A    between atoms: _49  and  _50
REMARK   23  A    between atoms: _53  and  _55
REMARK   24  A    between atoms: _55  and  _56
REMARK   25  A    between atoms: _55  and  _58
REMARK   26  A    between atoms: _58  and  _59
REMARK   27  A    between atoms: _62  and  _64
REMARK   28  A    between atoms: _64  and  _65
REMARK   29  A    between atoms: _64  and  _67
REMARK   30  A    between atoms: _67  and  _68
REMARK   31  A    between atoms: _70  and  _72
REMARK   32  A    between atoms: _72  and  _73
REMARK   33  A    between atoms: _72  and  _75
REMARK   34  A    between atoms: _75  and  _76
REMARK   35  A    between atoms: _81  and  _83
REMARK   36  A    between atoms: _83  and  _84
REMARK   37  A    between atoms: _83  and  _86
REMARK   38  A    between atoms: _86  and  _87
REMARK   39  A    between atoms: _89  and  _91
REMARK   40  A    between atoms: _91  and  _92
REMARK   41  A    between atoms: _91  and  _94
REMARK   42  A    between atoms: _94  and  _95
REMARK   43  A    between atoms: _97  and  _99
REMARK   44  A    between atoms: _99  and  _100
REMARK   45  A    between atoms: _99  and  _102
REMARK   46  A    between atoms: _102  and  _103
REMARK   47  A    between atoms: _106  and  _108
REMARK   48  A    between atoms: _108  and  _109
REMARK   49  A    between atoms: _112  and  _114
REMARK   50  A    between atoms: _114  and  _115
REMARK   51  A    between atoms: _114  and  _117
REMARK   52  A    between atoms: _117  and  _118
REMARK   53  A    between atoms: _121  and  _123
REMARK   54  A    between atoms: _123  and  _124
REMARK   55  A    between atoms: _123  and  _126
REMARK   56  A    between atoms: _126  and  _127
REMARK   57  A    between atoms: _127  and  _128
REMARK   58  A    between atoms: _128  and  _129
REMARK   59  A    between atoms: _129  and  _130
REMARK   60  A    between atoms: _134  and  _136
REMARK   61  A    between atoms: _136  and  _137
REMARK   62  A    between atoms: _136  and  _139
REMARK   63  A    between atoms: _139  and  _140
REMARK   64  A    between atoms: _143  and  _145
REMARK   65  A    between atoms: _145  and  _146
REMARK   66  A    between atoms: _145  and  _148
REMARK   67  A    between atoms: _148  and  _149
REMARK   68  A    between atoms: _152  and  _154
REMARK   69  A    between atoms: _154  and  _155
REMARK   70  A    between atoms: _154  and  _157
REMARK   71  A    between atoms: _160  and  _162
REMARK   72  A    between atoms: _162  and  _163
REMARK   73  A    between atoms: _162  and  _165
REMARK   74  A    between atoms: _165  and  _166
REMARK   75  A    between atoms: _169  and  _171
REMARK   76  A    between atoms: _171  and  _172
REMARK   77  A    between atoms: _171  and  _174
REMARK   78  A    between atoms: _174  and  _175
REMARK   79  A    between atoms: _178  and  _180
REMARK   80  A    between atoms: _180  and  _181
REMARK   81  A    between atoms: _183  and  _185
REMARK   82  A    between atoms: _185  and  _186
REMARK   83  A    between atoms: _185  and  _188
REMARK   84  A    between atoms: _188  and  _189
REMARK   85  A    between atoms: _192  and  _194
REMARK   86  A    between atoms: _194  and  _195
REMARK   87  A    between atoms: _197  and  _199
REMARK   88  A    between atoms: _199  and  _200
REMARK   89  A    between atoms: _199  and  _202
REMARK   90  A    between atoms: _202  and  _203
REMARK   91  A    between atoms: _203  and  _204
REMARK   92  A    between atoms: _206  and  _208
REMARK   93  A    between atoms: _208  and  _209
REMARK   94  A    between atoms: _208  and  _211
REMARK   95  A    between atoms: _211  and  _212
REMARK   96  A    between atoms: _215  and  _217
REMARK   97  A    between atoms: _217  and  _218
REMARK   98  A    between atoms: _217  and  _220
REMARK   99  A    between atoms: _220  and  _221
REMARK  100  A    between atoms: _221  and  _222
REMARK  101  A    between atoms: _222  and  _223
REMARK  102  A    between atoms: _223  and  _224
REMARK  103  A    between atoms: _228  and  _230
REMARK  104  A    between atoms: _230  and  _231
REMARK  105  A    between atoms: _234  and  _236
REMARK  106  A    between atoms: _236  and  _237
REMARK  107  A    between atoms: _236  and  _239
REMARK  108  A    between atoms: _239  and  _240
REMARK  109  A    between atoms: _243  and  _245
REMARK  110  A    between atoms: _245  and  _246
REMARK  111  A    between atoms: _245  and  _248
REMARK  112  A    between atoms: _248  and  _249
REMARK  113  A    between atoms: _252  and  _254
REMARK  114  A    between atoms: _254  and  _255
REMARK  115  A    between atoms: _254  and  _257
REMARK  116  A    between atoms: _257  and  _258
REMARK  117  A    between atoms: _261  and  _263
REMARK  118  A    between atoms: _263  and  _264
REMARK  119  A    between atoms: _263  and  _266
REMARK  120  A    between atoms: _266  and  _267
REMARK  121  A    between atoms: _272  and  _274
REMARK  122  A    between atoms: _274  and  _275
REMARK  123  A    between atoms: _274  and  _277
REMARK  124  A    between atoms: _277  and  _278
REMARK  125  A    between atoms: _283  and  _285
REMARK  126  A    between atoms: _285  and  _286
REMARK  127  A    between atoms: _285  and  _288
REMARK  128  A    between atoms: _288  and  _289
REMARK  129  A    between atoms: _292  and  _294
REMARK  130  A    between atoms: _294  and  _295
REMARK  131  A    between atoms: _297  and  _299
REMARK  132  A    between atoms: _299  and  _300
REMARK  133  A    between atoms: _299  and  _302
REMARK  134  A    between atoms: _302  and  _303
REMARK  135  A    between atoms: _306  and  _308
REMARK  136  A    between atoms: _308  and  _309
REMARK  137  A    between atoms: _308  and  _311
REMARK  138  A    between atoms: _311  and  _312
REMARK  139  A    between atoms: _315  and  _317
REMARK  140  A    between atoms: _317  and  _318
REMARK  141  A    between atoms: _321  and  _323
REMARK  142  A    between atoms: _323  and  _324
REMARK  143  A    between atoms: _323  and  _326
REMARK  144  A    between atoms: _326  and  _327
REMARK  145  A    between atoms: _327  and  _328
REMARK  146  A    between atoms: _328  and  _329
REMARK  147  A    between atoms: _329  and  _330
REMARK  148  A    between atoms: _334  and  _336
REMARK  149  A    between atoms: _336  and  _337
REMARK  150  A    between atoms: _339  and  _341
REMARK  151  A    between atoms: _341  and  _342
REMARK  152  A    between atoms: _341  and  _344
REMARK  153  A    between atoms: _344  and  _345
REMARK  154  A    between atoms: _348  and  _350
REMARK  155  A    between atoms: _350  and  _351
REMARK  156  A    between atoms: _353  and  _355
REMARK  157  A    between atoms: _355  and  _356
REMARK  158  A    between atoms: _355  and  _358
REMARK  159  A    between atoms: _358  and  _359
REMARK  160  A    between atoms: _365  and  _367
REMARK  161  A    between atoms: _367  and  _368
REMARK  162  A    between atoms: _370  and  _372
REMARK  163  A    between atoms: _372  and  _373
REMARK  164  A    between atoms: _372  and  _375
REMARK  165  A    between atoms: _378  and  _380
REMARK  166  A    between atoms: _380  and  _381
REMARK  167  A    between atoms: _383  and  _385
REMARK  168  A    between atoms: _385  and  _386
REMARK  169  A    between atoms: _385  and  _388
REMARK  170  A    between atoms: _388  and  _389
REMARK  171  A    between atoms: _395  and  _397
REMARK  172  A    between atoms: _397  and  _398
REMARK  173  A    between atoms: _397  and  _400
REMARK  174  A    between atoms: _400  and  _401
REMARK  175  A    between atoms: _406  and  _407
REMARK  176  A    between atoms: _409  and  _411
REMARK  177  A    between atoms: _411  and  _412
REMARK  178  A    between atoms: _411  and  _414
REMARK  179  A    between atoms: _414  and  _415
REMARK  180  A    between atoms: _420  and  _421
REMARK  181  A    between atoms: _423  and  _425
REMARK  182  A    between atoms: _425  and  _426
REMARK  183  A    between atoms: _425  and  _428
REMARK  184  A    between atoms: _431  and  _433
REMARK  185  A    between atoms: _433  and  _434
REMARK  186  A    between atoms: _433  and  _436
REMARK  187  A    between atoms: _436  and  _437
REMARK  188  A    between atoms: _440  and  _442
REMARK  189  A    between atoms: _442  and  _443
REMARK  190  A    between atoms: _442  and  _445
REMARK  191  A    between atoms: _448  and  _450
REMARK  192  A    between atoms: _450  and  _451
REMARK  193  A    between atoms: _450  and  _453
REMARK  194  A    between atoms: _453  and  _454
REMARK  195  A    between atoms: _457  and  _459
REMARK  196  A    between atoms: _459  and  _460
REMARK  197  A    between atoms: _459  and  _462
REMARK  198  A    between atoms: _462  and  _463
REMARK  199  A    between atoms: _466  and  _468
REMARK  200  A    between atoms: _468  and  _469
REMARK  201  A    between atoms: _468  and  _471
REMARK  202  A    between atoms: _471  and  _472
REMARK  203  A    between atoms: _472  and  _473
REMARK  204  A    between atoms: _473  and  _474
REMARK  205  A    between atoms: _474  and  _475
REMARK  206  A    between atoms: _479  and  _481
REMARK  207  A    between atoms: _481  and  _482
REMARK  208  A    between atoms: _481  and  _484
REMARK  209  A    between atoms: _484  and  _485
REMARK  210  A    between atoms: _490  and  _492
REMARK  211  A    between atoms: _492  and  _493
REMARK  212  A    between atoms: _492  and  _495
REMARK  213  A    between atoms: _495  and  _496
REMARK  214  A    between atoms: _506  and  _508
REMARK  215  A    between atoms: _508  and  _509
REMARK  216  A    between atoms: _508  and  _511
REMARK  217  A    between atoms: _511  and  _512
REMARK  218  A    between atoms: _512  and  _513
REMARK  219  A    between atoms: _516  and  _518
REMARK  220  A    between atoms: _518  and  _519
REMARK  221  A    between atoms: _518  and  _521
REMARK  222  A    between atoms: _521  and  _522
REMARK  223  A    between atoms: _524  and  _526
REMARK  224  A    between atoms: _526  and  _527
REMARK  225  A    between atoms: _526  and  _529
REMARK  226  A    between atoms: _529  and  _530
REMARK  227  A    between atoms: _536  and  _538
REMARK  228  A    between atoms: _538  and  _539
REMARK  229  A    between atoms: _538  and  _541
REMARK  230  A    between atoms: _541  and  _542
REMARK  231  A    between atoms: _545  and  _547
REMARK  232  A    between atoms: _547  and  _548
REMARK  233  A    between atoms: _547  and  _550
REMARK  234  A    between atoms: _553  and  _555
REMARK  235  A    between atoms: _555  and  _556
REMARK  236  A    between atoms: _558  and  _560
REMARK  237  A    between atoms: _560  and  _561
REMARK  238  A    between atoms: _560  and  _563
REMARK  239  A    between atoms: _563  and  _564
REMARK  240  A    between atoms: _567  and  _569
REMARK  241  A    between atoms: _569  and  _570
REMARK  242  A    between atoms: _569  and  _572
REMARK  243  A    between atoms: _572  and  _573
REMARK  244  A    between atoms: _573  and  _574
REMARK  245  A    between atoms: _574  and  _575
REMARK  246  A    between atoms: _575  and  _576
REMARK  247  A    between atoms: _580  and  _582
REMARK  248  A    between atoms: _582  and  _583
REMARK  249  A    between atoms: _582  and  _585
REMARK                            x       y       z     vdW  Elec       q    Type
REMARK                         _______ _______ _______ _____ _____    ______ ____
ROOT
ATOM      1  O   HOH     1       5.204  -8.709 -19.868  0.00  0.00    +0.000 OA
ENDROOT
TORSDOF 0
REMARK  Name = ../refined-set-2016/4o05/4o05_pocket.pdb
REMARK  249 active torsions:
REMARK  status: ('A' for Active; 'I' for Inactive)
REMARK    1  A    between atoms: _1  and  _3
REMARK    2  A    between atoms: _3  and  _4
REMARK    3  A    between atoms: _3  and  _6
REMARK    4  A    between atoms: _6  and  _7
REMARK    5  A    between atoms: _13  and  _15
REMARK    6  A    between atoms: _15  and  _16
REMARK    7  A    between atoms: _15  and  _18
REMARK    8  A    between atoms: _18  and  _19
REMARK    9  A    between atoms: _19  and  _20
REMARK   10  A    between atoms: _25  and  _27
REMARK   11  A    between atoms: _27  and  _28
REMARK   12  A    between atoms: _27  and  _30
REMARK   13  A    between atoms: _30  and  _31
REMARK   14  A    between atoms: _34  and  _36
REMARK   15  A    between atoms: _36  and  _37
REMARK   16  A    between atoms: _36  and  _39
REMARK   17  A    between atoms: _39  and  _40
REMARK   18  A    between atoms: _40  and  _41
REMARK   19  A    between atoms: _44  and  _46
REMARK   20  A    between atoms: _46  and  _47
REMARK   21  A    between atoms: _46  and  _49
REMARK   22  A    between atoms: _49  and  _50
REMARK   23  A    between atoms: _53  and  _55
REMARK   24  A    between atoms: _55  and  _56
REMARK   25  A    between atoms: _55  and  _58
REMARK   26  A    between atoms: _58  and  _59
REMARK   27  A    between atoms: _62  and  _64
REMARK   28  A    between atoms: _64  and  _65
REMARK   29  A    between atoms: _64  and  _67
REMARK   30  A    between atoms: _67  and  _68
REMARK   31  A    between atoms: _70  and  _72
REMARK   32  A    between atoms: _72  and  _73
REMARK   33  A    between atoms: _72  and  _75
REMARK   34  A    between atoms: _75  and  _76
REMARK   35  A    between atoms: _81  and  _83
REMARK   36  A    between atoms: _83  and  _84
REMARK   37  A    between atoms: _83  and  _86
REMARK   38  A    between atoms: _86  and  _87
REMARK   39  A    between atoms: _89  and  _91
REMARK   40  A    between atoms: _91  and  _92
REMARK   41  A    between atoms: _91  and  _94
REMARK   42  A    between atoms: _94  and  _95
REMARK   43  A    between atoms: _97  and  _99
REMARK   44  A    between atoms: _99  and  _100
REMARK   45  A    between atoms: _99  and  _102
REMARK   46  A    between atoms: _102  and  _103
REMARK   47  A    between atoms: _106  and  _108
REMARK   48  A    between atoms: _108  and  _109
REMARK   49  A    between atoms: _112  and  _114
REMARK   50  A    between atoms: _114  and  _115
REMARK   51  A    between atoms: _114  and  _117
REMARK   52  A    between atoms: _117  and  _118
REMARK   53  A    between atoms: _121  and  _123
REMARK   54  A    between atoms: _123  and  _124
REMARK   55  A    between atoms: _123  and  _126
REMARK   56  A    between atoms: _126  and  _127
REMARK   57  A    between atoms: _127  and  _128
REMARK   58  A    between atoms: _128  and  _129
REMARK   59  A    between atoms: _129  and  _130
REMARK   60  A    between atoms: _134  and  _136
REMARK   61  A    between atoms: _136  and  _137
REMARK   62  A    between atoms: _136  and  _139
REMARK   63  A    between atoms: _139  and  _140
REMARK   64  A    between atoms: _143  and  _145
REMARK   65  A    between atoms: _145  and  _146
REMARK   66  A    between atoms: _145  and  _148
REMARK   67  A    between atoms: _148  and  _149
REMARK   68  A    between atoms: _152  and  _154
REMARK   69  A    between atoms: _154  and  _155
REMARK   70  A    between atoms: _154  and  _157
REMARK   71  A    between atoms: _160  and  _162
REMARK   72  A    between atoms: _162  and  _163
REMARK   73  A    between atoms: _162  and  _165
REMARK   74  A    between atoms: _165  and  _166
REMARK   75  A    between atoms: _169  and  _171
REMARK   76  A    between atoms: _171  and  _172
REMARK   77  A    between atoms: _171  and  _174
REMARK   78  A    between atoms: _174  and  _175
REMARK   79  A    between atoms: _178  and  _180
REMARK   80  A    between atoms: _180  and  _181
REMARK   81  A    between atoms: _183  and  _185
REMARK   82  A    between atoms: _185  and  _186
REMARK   83  A    between atoms: _185  and  _188
REMARK   84  A    between atoms: _188  and  _189
REMARK   85  A    between atoms: _192  and  _194
REMARK   86  A    between atoms: _194  and  _195
REMARK   87  A    between atoms: _197  and  _199
REMARK   88  A    between atoms: _199  and  _200
REMARK   89  A    between atoms: _199  and  _202
REMARK   90  A    between atoms: _202  and  _203
REMARK   91  A    between atoms: _203  and  _204
REMARK   92  A    between atoms: _206  and  _208
REMARK   93  A    between atoms: _208  and  _209
REMARK   94  A    between atoms: _208  and  _211
REMARK   95  A    between atoms: _211  and  _212
REMARK   96  A    between atoms: _215  and  _217
REMARK   97  A    between atoms: _217  and  _218
REMARK   98  A    between atoms: _217  and  _220
REMARK   99  A    between atoms: _220  and  _221
REMARK  100  A    between atoms: _221  and  _222
REMARK  101  A    between atoms: _222  and  _223
REMARK  102  A    between atoms: _223  and  _224
REMARK  103  A    between atoms: _228  and  _230
REMARK  104  A    between atoms: _230  and  _231
REMARK  105  A    between atoms: _234  and  _236
REMARK  106  A    between atoms: _236  and  _237
REMARK  107  A    between atoms: _236  and  _239
REMARK  108  A    between atoms: _239  and  _240
REMARK  109  A    between atoms: _243  and  _245
REMARK  110  A    between atoms: _245  and  _246
REMARK  111  A    between atoms: _245  and  _248
REMARK  112  A    between atoms: _248  and  _249
REMARK  113  A    between atoms: _252  and  _254
REMARK  114  A    between atoms: _254  and  _255
REMARK  115  A    between atoms: _254  and  _257
REMARK  116  A    between atoms: _257  and  _258
REMARK  117  A    between atoms: _261  and  _263
REMARK  118  A    between atoms: _263  and  _264
REMARK  119  A    between atoms: _263  and  _266
REMARK  120  A    between atoms: _266  and  _267
REMARK  121  A    between atoms: _272  and  _274
REMARK  122  A    between atoms: _274  and  _275
REMARK  123  A    between atoms: _274  and  _277
REMARK  124  A    between atoms: _277  and  _278
REMARK  125  A    between atoms: _283  and  _285
REMARK  126  A    between atoms: _285  and  _286
REMARK  127  A    between atoms: _285  and  _288
REMARK  128  A    between atoms: _288  and  _289
REMARK  129  A    between atoms: _292  and  _294
REMARK  130  A    between atoms: _294  and  _295
REMARK  131  A    between atoms: _297  and  _299
REMARK  132  A    between atoms: _299  and  _300
REMARK  133  A    between atoms: _299  and  _302
REMARK  134  A    between atoms: _302  and  _303
REMARK  135  A    between atoms: _306  and  _308
REMARK  136  A    between atoms: _308  and  _309
REMARK  137  A    between atoms: _308  and  _311
REMARK  138  A    between atoms: _311  and  _312
REMARK  139  A    between atoms: _315  and  _317
REMARK  140  A    between atoms: _317  and  _318
REMARK  141  A    between atoms: _321  and  _323
REMARK  142  A    between atoms: _323  and  _324
REMARK  143  A    between atoms: _323  and  _326
REMARK  144  A    between atoms: _326  and  _327
REMARK  145  A    between atoms: _327  and  _328
REMARK  146  A    between atoms: _328  and  _329
REMARK  147  A    between atoms: _329  and  _330
REMARK  148  A    between atoms: _334  and  _336
REMARK  149  A    between atoms: _336  and  _337
REMARK  150  A    between atoms: _339  and  _341
REMARK  151  A    between atoms: _341  and  _342
REMARK  152  A    between atoms: _341  and  _344
REMARK  153  A    between atoms: _344  and  _345
REMARK  154  A    between atoms: _348  and  _350
REMARK  155  A    between atoms: _350  and  _351
REMARK  156  A    between atoms: _353  and  _355
REMARK  157  A    between atoms: _355  and  _356
REMARK  158  A    between atoms: _355  and  _358
REMARK  159  A    between atoms: _358  and  _359
REMARK  160  A    between atoms: _365  and  _367
REMARK  161  A    between atoms: _367  and  _368
REMARK  162  A    between atoms: _370  and  _372
REMARK  163  A    between atoms: _372  and  _373
REMARK  164  A    between atoms: _372  and  _375
REMARK  165  A    between atoms: _378  and  _380
REMARK  166  A    between atoms: _380  and  _381
REMARK  167  A    between atoms: _383  and  _385
REMARK  168  A    between atoms: _385  and  _386
REMARK  169  A    between atoms: _385  and  _388
REMARK  170  A    between atoms: _388  and  _389
REMARK  171  A    between atoms: _395  and  _397
REMARK  172  A    between atoms: _397  and  _398
REMARK  173  A    between atoms: _397  and  _400
REMARK  174  A    between atoms: _400  and  _401
REMARK  175  A    between atoms: _406  and  _407
REMARK  176  A    between atoms: _409  and  _411
REMARK  177  A    between atoms: _411  and  _412
REMARK  178  A    between atoms: _411  and  _414
REMARK  179  A    between atoms: _414  and  _415
REMARK  180  A    between atoms: _420  and  _421
REMARK  181  A    between atoms: _423  and  _425
REMARK  182  A    between atoms: _425  and  _426
REMARK  183  A    between atoms: _425  and  _428
REMARK  184  A    between atoms: _431  and  _433
REMARK  185  A    between atoms: _433  and  _434
REMARK  186  A    between atoms: _433  and  _436
REMARK  187  A    between atoms: _436  and  _437
REMARK  188  A    between atoms: _440  and  _442
REMARK  189  A    between atoms: _442  and  _443
REMARK  190  A    between atoms: _442  and  _445
REMARK  191  A    between atoms: _448  and  _450
REMARK  192  A    between atoms: _450  and  _451
REMARK  193  A    between atoms: _450  and  _453
REMARK  194  A    between atoms: _453  and  _454
REMARK  195  A    between atoms: _457  and  _459
REMARK  196  A    between atoms: _459  and  _460
REMARK  197  A    between atoms: _459  and  _462
REMARK  198  A    between atoms: _462  and  _463
REMARK  199  A    between atoms: _466  and  _468
REMARK  200  A    between atoms: _468  and  _469
REMARK  201  A    between atoms: _468  and  _471
REMARK  202  A    between atoms: _471  and  _472
REMARK  203  A    between atoms: _472  and  _473
REMARK  204  A    between atoms: _473  and  _474
REMARK  205  A    between atoms: _474  and  _475
REMARK  206  A    between atoms: _479  and  _481
REMARK  207  A    between atoms: _481  and  _482
REMARK  208  A    between atoms: _481  and  _484
REMARK  209  A    between atoms: _484  and  _485
REMARK  210  A    between atoms: _490  and  _492
REMARK  211  A    between atoms: _492  and  _493
REMARK  212  A    between atoms: _492  and  _495
REMARK  213  A    between atoms: _495  and  _496
REMARK  214  A    between atoms: _506  and  _508
REMARK  215  A    between atoms: _508  and  _509
REMARK  216  A    between atoms: _508  and  _511
REMARK  217  A    between atoms: _511  and  _512
REMARK  218  A    between atoms: _512  and  _513
REMARK  219  A    between atoms: _516  and  _518
REMARK  220  A    between atoms: _518  and  _519
REMARK  221  A    between atoms: _518  and  _521
REMARK  222  A    between atoms: _521  and  _522
REMARK  223  A    between atoms: _524  and  _526
REMARK  224  A    between atoms: _526  and  _527
REMARK  225  A    between atoms: _526  and  _529
REMARK  226  A    between atoms: _529  and  _530
REMARK  227  A    between atoms: _536  and  _538
REMARK  228  A    between atoms: _538  and  _539
REMARK  229  A    between atoms: _538  and  _541
REMARK  230  A    between atoms: _541  and  _542
REMARK  231  A    between atoms: _545  and  _547
REMARK  232  A    between atoms: _547  and  _548
REMARK  233  A    between atoms: _547  and  _550
REMARK  234  A    between atoms: _553  and  _555
REMARK  235  A    between atoms: _555  and  _556
REMARK  236  A    between atoms: _558  and  _560
REMARK  237  A    between atoms: _560  and  _561
REMARK  238  A    between atoms: _560  and  _563
REMARK  239  A    between atoms: _563  and  _564
REMARK  240  A    between atoms: _567  and  _569
REMARK  241  A    between atoms: _569  and  _570
REMARK  242  A    between atoms: _569  and  _572
REMARK  243  A    between atoms: _572  and  _573
REMARK  244  A    between atoms: _573  and  _574
REMARK  245  A    between atoms: _574  and  _575
REMARK  246  A    between atoms: _575  and  _576
REMARK  247  A    between atoms: _580  and  _582
REMARK  248  A    between atoms: _582  and  _583
REMARK  249  A    between atoms: _582  and  _585
REMARK                            x       y       z     vdW  Elec       q    Type
REMARK                         _______ _______ _______ _____ _____    ______ ____
ROOT
ATOM      1  O   HOH     1      -3.475 -11.414 -27.936  0.00  0.00    +0.000 OA
ENDROOT
TORSDOF 0
REMARK  Name = ../refined-set-2016/4o05/4o05_pocket.pdb
REMARK  249 active torsions:
REMARK  status: ('A' for Active; 'I' for Inactive)
REMARK    1  A    between atoms: _1  and  _3
REMARK    2  A    between atoms: _3  and  _4
REMARK    3  A    between atoms: _3  and  _6
REMARK    4  A    between atoms: _6  and  _7
REMARK    5  A    between atoms: _13  and  _15
REMARK    6  A    between atoms: _15  and  _16
REMARK    7  A    between atoms: _15  and  _18
REMARK    8  A    between atoms: _18  and  _19
REMARK    9  A    between atoms: _19  and  _20
REMARK   10  A    between atoms: _25  and  _27
REMARK   11  A    between atoms: _27  and  _28
REMARK   12  A    between atoms: _27  and  _30
REMARK   13  A    between atoms: _30  and  _31
REMARK   14  A    between atoms: _34  and  _36
REMARK   15  A    between atoms: _36  and  _37
REMARK   16  A    between atoms: _36  and  _39
REMARK   17  A    between atoms: _39  and  _40
REMARK   18  A    between atoms: _40  and  _41
REMARK   19  A    between atoms: _44  and  _46
REMARK   20  A    between atoms: _46  and  _47
REMARK   21  A    between atoms: _46  and  _49
REMARK   22  A    between atoms: _49  and  _50
REMARK   23  A    between atoms: _53  and  _55
REMARK   24  A    between atoms: _55  and  _56
REMARK   25  A    between atoms: _55  and  _58
REMARK   26  A    between atoms: _58  and  _59
REMARK   27  A    between atoms: _62  and  _64
REMARK   28  A    between atoms: _64  and  _65
REMARK   29  A    between atoms: _64  and  _67
REMARK   30  A    between atoms: _67  and  _68
REMARK   31  A    between atoms: _70  and  _72
REMARK   32  A    between atoms: _72  and  _73
REMARK   33  A    between atoms: _72  and  _75
REMARK   34  A    between atoms: _75  and  _76
REMARK   35  A    between atoms: _81  and  _83
REMARK   36  A    between atoms: _83  and  _84
REMARK   37  A    between atoms: _83  and  _86
REMARK   38  A    between atoms: _86  and  _87
REMARK   39  A    between atoms: _89  and  _91
REMARK   40  A    between atoms: _91  and  _92
REMARK   41  A    between atoms: _91  and  _94
REMARK   42  A    between atoms: _94  and  _95
REMARK   43  A    between atoms: _97  and  _99
REMARK   44  A    between atoms: _99  and  _100
REMARK   45  A    between atoms: _99  and  _102
REMARK   46  A    between atoms: _102  and  _103
REMARK   47  A    between atoms: _106  and  _108
REMARK   48  A    between atoms: _108  and  _109
REMARK   49  A    between atoms: _112  and  _114
REMARK   50  A    between atoms: _114  and  _115
REMARK   51  A    between atoms: _114  and  _117
REMARK   52  A    between atoms: _117  and  _118
REMARK   53  A    between atoms: _121  and  _123
REMARK   54  A    between atoms: _123  and  _124
REMARK   55  A    between atoms: _123  and  _126
REMARK   56  A    between atoms: _126  and  _127
REMARK   57  A    between atoms: _127  and  _128
REMARK   58  A    between atoms: _128  and  _129
REMARK   59  A    between atoms: _129  and  _130
REMARK   60  A    between atoms: _134  and  _136
REMARK   61  A    between atoms: _136  and  _137
REMARK   62  A    between atoms: _136  and  _139
REMARK   63  A    between atoms: _139  and  _140
REMARK   64  A    between atoms: _143  and  _145
REMARK   65  A    between atoms: _145  and  _146
REMARK   66  A    between atoms: _145  and  _148
REMARK   67  A    between atoms: _148  and  _149
REMARK   68  A    between atoms: _152  and  _154
REMARK   69  A    between atoms: _154  and  _155
REMARK   70  A    between atoms: _154  and  _157
REMARK   71  A    between atoms: _160  and  _162
REMARK   72  A    between atoms: _162  and  _163
REMARK   73  A    between atoms: _162  and  _165
REMARK   74  A    between atoms: _165  and  _166
REMARK   75  A    between atoms: _169  and  _171
REMARK   76  A    between atoms: _171  and  _172
REMARK   77  A    between atoms: _171  and  _174
REMARK   78  A    between atoms: _174  and  _175
REMARK   79  A    between atoms: _178  and  _180
REMARK   80  A    between atoms: _180  and  _181
REMARK   81  A    between atoms: _183  and  _185
REMARK   82  A    between atoms: _185  and  _186
REMARK   83  A    between atoms: _185  and  _188
REMARK   84  A    between atoms: _188  and  _189
REMARK   85  A    between atoms: _192  and  _194
REMARK   86  A    between atoms: _194  and  _195
REMARK   87  A    between atoms: _197  and  _199
REMARK   88  A    between atoms: _199  and  _200
REMARK   89  A    between atoms: _199  and  _202
REMARK   90  A    between atoms: _202  and  _203
REMARK   91  A    between atoms: _203  and  _204
REMARK   92  A    between atoms: _206  and  _208
REMARK   93  A    between atoms: _208  and  _209
REMARK   94  A    between atoms: _208  and  _211
REMARK   95  A    between atoms: _211  and  _212
REMARK   96  A    between atoms: _215  and  _217
REMARK   97  A    between atoms: _217  and  _218
REMARK   98  A    between atoms: _217  and  _220
REMARK   99  A    between atoms: _220  and  _221
REMARK  100  A    between atoms: _221  and  _222
REMARK  101  A    between atoms: _222  and  _223
REMARK  102  A    between atoms: _223  and  _224
REMARK  103  A    between atoms: _228  and  _230
REMARK  104  A    between atoms: _230  and  _231
REMARK  105  A    between atoms: _234  and  _236
REMARK  106  A    between atoms: _236  and  _237
REMARK  107  A    between atoms: _236  and  _239
REMARK  108  A    between atoms: _239  and  _240
REMARK  109  A    between atoms: _243  and  _245
REMARK  110  A    between atoms: _245  and  _246
REMARK  111  A    between atoms: _245  and  _248
REMARK  112  A    between atoms: _248  and  _249
REMARK  113  A    between atoms: _252  and  _254
REMARK  114  A    between atoms: _254  and  _255
REMARK  115  A    between atoms: _254  and  _257
REMARK  116  A    between atoms: _257  and  _258
REMARK  117  A    between atoms: _261  and  _263
REMARK  118  A    between atoms: _263  and  _264
REMARK  119  A    between atoms: _263  and  _266
REMARK  120  A    between atoms: _266  and  _267
REMARK  121  A    between atoms: _272  and  _274
REMARK  122  A    between atoms: _274  and  _275
REMARK  123  A    between atoms: _274  and  _277
REMARK  124  A    between atoms: _277  and  _278
REMARK  125  A    between atoms: _283  and  _285
REMARK  126  A    between atoms: _285  and  _286
REMARK  127  A    between atoms: _285  and  _288
REMARK  128  A    between atoms: _288  and  _289
REMARK  129  A    between atoms: _292  and  _294
REMARK  130  A    between atoms: _294  and  _295
REMARK  131  A    between atoms: _297  and  _299
REMARK  132  A    between atoms: _299  and  _300
REMARK  133  A    between atoms: _299  and  _302
REMARK  134  A    between atoms: _302  and  _303
REMARK  135  A    between atoms: _306  and  _308
REMARK  136  A    between atoms: _308  and  _309
REMARK  137  A    between atoms: _308  and  _311
REMARK  138  A    between atoms: _311  and  _312
REMARK  139  A    between atoms: _315  and  _317
REMARK  140  A    between atoms: _317  and  _318
REMARK  141  A    between atoms: _321  and  _323
REMARK  142  A    between atoms: _323  and  _324
REMARK  143  A    between atoms: _323  and  _326
REMARK  144  A    between atoms: _326  and  _327
REMARK  145  A    between atoms: _327  and  _328
REMARK  146  A    between atoms: _328  and  _329
REMARK  147  A    between atoms: _329  and  _330
REMARK  148  A    between atoms: _334  and  _336
REMARK  149  A    between atoms: _336  and  _337
REMARK  150  A    between atoms: _339  and  _341
REMARK  151  A    between atoms: _341  and  _342
REMARK  152  A    between atoms: _341  and  _344
REMARK  153  A    between atoms: _344  and  _345
REMARK  154  A    between atoms: _348  and  _350
REMARK  155  A    between atoms: _350  and  _351
REMARK  156  A    between atoms: _353  and  _355
REMARK  157  A    between atoms: _355  and  _356
REMARK  158  A    between atoms: _355  and  _358
REMARK  159  A    between atoms: _358  and  _359
REMARK  160  A    between atoms: _365  and  _367
REMARK  161  A    between atoms: _367  and  _368
REMARK  162  A    between atoms: _370  and  _372
REMARK  163  A    between atoms: _372  and  _373
REMARK  164  A    between atoms: _372  and  _375
REMARK  165  A    between atoms: _378  and  _380
REMARK  166  A    between atoms: _380  and  _381
REMARK  167  A    between atoms: _383  and  _385
REMARK  168  A    between atoms: _385  and  _386
REMARK  169  A    between atoms: _385  and  _388
REMARK  170  A    between atoms: _388  and  _389
REMARK  171  A    between atoms: _395  and  _397
REMARK  172  A    between atoms: _397  and  _398
REMARK  173  A    between atoms: _397  and  _400
REMARK  174  A    between atoms: _400  and  _401
REMARK  175  A    between atoms: _406  and  _407
REMARK  176  A    between atoms: _409  and  _411
REMARK  177  A    between atoms: _411  and  _412
REMARK  178  A    between atoms: _411  and  _414
REMARK  179  A    between atoms: _414  and  _415
REMARK  180  A    between atoms: _420  and  _421
REMARK  181  A    between atoms: _423  and  _425
REMARK  182  A    between atoms: _425  and  _426
REMARK  183  A    between atoms: _425  and  _428
REMARK  184  A    between atoms: _431  and  _433
REMARK  185  A    between atoms: _433  and  _434
REMARK  186  A    between atoms: _433  and  _436
REMARK  187  A    between atoms: _436  and  _437
REMARK  188  A    between atoms: _440  and  _442
REMARK  189  A    between atoms: _442  and  _443
REMARK  190  A    between atoms: _442  and  _445
REMARK  191  A    between atoms: _448  and  _450
REMARK  192  A    between atoms: _450  and  _451
REMARK  193  A    between atoms: _450  and  _453
REMARK  194  A    between atoms: _453  and  _454
REMARK  195  A    between atoms: _457  and  _459
REMARK  196  A    between atoms: _459  and  _460
REMARK  197  A    between atoms: _459  and  _462
REMARK  198  A    between atoms: _462  and  _463
REMARK  199  A    between atoms: _466  and  _468
REMARK  200  A    between atoms: _468  and  _469
REMARK  201  A    between atoms: _468  and  _471
REMARK  202  A    between atoms: _471  and  _472
REMARK  203  A    between atoms: _472  and  _473
REMARK  204  A    between atoms: _473  and  _474
REMARK  205  A    between atoms: _474  and  _475
REMARK  206  A    between atoms: _479  and  _481
REMARK  207  A    between atoms: _481  and  _482
REMARK  208  A    between atoms: _481  and  _484
REMARK  209  A    between atoms: _484  and  _485
REMARK  210  A    between atoms: _490  and  _492
REMARK  211  A    between atoms: _492  and  _493
REMARK  212  A    between atoms: _492  and  _495
REMARK  213  A    between atoms: _495  and  _496
REMARK  214  A    between atoms: _506  and  _508
REMARK  215  A    between atoms: _508  and  _509
REMARK  216  A    between atoms: _508  and  _511
REMARK  217  A    between atoms: _511  and  _512
REMARK  218  A    between atoms: _512  and  _513
REMARK  219  A    between atoms: _516  and  _518
REMARK  220  A    between atoms: _518  and  _519
REMARK  221  A    between atoms: _518  and  _521
REMARK  222  A    between atoms: _521  and  _522
REMARK  223  A    between atoms: _524  and  _526
REMARK  224  A    between atoms: _526  and  _527
REMARK  225  A    between atoms: _526  and  _529
REMARK  226  A    between atoms: _529  and  _530
REMARK  227  A    between atoms: _536  and  _538
REMARK  228  A    between atoms: _538  and  _539
REMARK  229  A    between atoms: _538  and  _541
REMARK  230  A    between atoms: _541  and  _542
REMARK  231  A    between atoms: _545  and  _547
REMARK  232  A    between atoms: _547  and  _548
REMARK  233  A    between atoms: _547  and  _550
REMARK  234  A    between atoms: _553  and  _555
REMARK  235  A    between atoms: _555  and  _556
REMARK  236  A    between atoms: _558  and  _560
REMARK  237  A    between atoms: _560  and  _561
REMARK  238  A    between atoms: _560  and  _563
REMARK  239  A    between atoms: _563  and  _564
REMARK  240  A    between atoms: _567  and  _569
REMARK  241  A    between atoms: _569  and  _570
REMARK  242  A    between atoms: _569  and  _572
REMARK  243  A    between atoms: _572  and  _573
REMARK  244  A    between atoms: _573  and  _574
REMARK  245  A    between atoms: _574  and  _575
REMARK  246  A    between atoms: _575  and  _576
REMARK  247  A    between atoms: _580  and  _582
REMARK  248  A    between atoms: _582  and  _583
REMARK  249  A    between atoms: _582  and  _585
REMARK                            x       y       z     vdW  Elec       q    Type
REMARK                         _______ _______ _______ _____ _____    ______ ____
ROOT
ATOM      1  O   HOH     1      10.362 -15.051 -26.904  0.00  0.00    +0.000 OA
ENDROOT
TORSDOF 0
REMARK  Name = ../refined-set-2016/4o05/4o05_pocket.pdb
REMARK  249 active torsions:
REMARK  status: ('A' for Active; 'I' for Inactive)
REMARK    1  A    between atoms: _1  and  _3
REMARK    2  A    between atoms: _3  and  _4
REMARK    3  A    between atoms: _3  and  _6
REMARK    4  A    between atoms: _6  and  _7
REMARK    5  A    between atoms: _13  and  _15
REMARK    6  A    between atoms: _15  and  _16
REMARK    7  A    between atoms: _15  and  _18
REMARK    8  A    between atoms: _18  and  _19
REMARK    9  A    between atoms: _19  and  _20
REMARK   10  A    between atoms: _25  and  _27
REMARK   11  A    between atoms: _27  and  _28
REMARK   12  A    between atoms: _27  and  _30
REMARK   13  A    between atoms: _30  and  _31
REMARK   14  A    between atoms: _34  and  _36
REMARK   15  A    between atoms: _36  and  _37
REMARK   16  A    between atoms: _36  and  _39
REMARK   17  A    between atoms: _39  and  _40
REMARK   18  A    between atoms: _40  and  _41
REMARK   19  A    between atoms: _44  and  _46
REMARK   20  A    between atoms: _46  and  _47
REMARK   21  A    between atoms: _46  and  _49
REMARK   22  A    between atoms: _49  and  _50
REMARK   23  A    between atoms: _53  and  _55
REMARK   24  A    between atoms: _55  and  _56
REMARK   25  A    between atoms: _55  and  _58
REMARK   26  A    between atoms: _58  and  _59
REMARK   27  A    between atoms: _62  and  _64
REMARK   28  A    between atoms: _64  and  _65
REMARK   29  A    between atoms: _64  and  _67
REMARK   30  A    between atoms: _67  and  _68
REMARK   31  A    between atoms: _70  and  _72
REMARK   32  A    between atoms: _72  and  _73
REMARK   33  A    between atoms: _72  and  _75
REMARK   34  A    between atoms: _75  and  _76
REMARK   35  A    between atoms: _81  and  _83
REMARK   36  A    between atoms: _83  and  _84
REMARK   37  A    between atoms: _83  and  _86
REMARK   38  A    between atoms: _86  and  _87
REMARK   39  A    between atoms: _89  and  _91
REMARK   40  A    between atoms: _91  and  _92
REMARK   41  A    between atoms: _91  and  _94
REMARK   42  A    between atoms: _94  and  _95
REMARK   43  A    between atoms: _97  and  _99
REMARK   44  A    between atoms: _99  and  _100
REMARK   45  A    between atoms: _99  and  _102
REMARK   46  A    between atoms: _102  and  _103
REMARK   47  A    between atoms: _106  and  _108
REMARK   48  A    between atoms: _108  and  _109
REMARK   49  A    between atoms: _112  and  _114
REMARK   50  A    between atoms: _114  and  _115
REMARK   51  A    between atoms: _114  and  _117
REMARK   52  A    between atoms: _117  and  _118
REMARK   53  A    between atoms: _121  and  _123
REMARK   54  A    between atoms: _123  and  _124
REMARK   55  A    between atoms: _123  and  _126
REMARK   56  A    between atoms: _126  and  _127
REMARK   57  A    between atoms: _127  and  _128
REMARK   58  A    between atoms: _128  and  _129
REMARK   59  A    between atoms: _129  and  _130
REMARK   60  A    between atoms: _134  and  _136
REMARK   61  A    between atoms: _136  and  _137
REMARK   62  A    between atoms: _136  and  _139
REMARK   63  A    between atoms: _139  and  _140
REMARK   64  A    between atoms: _143  and  _145
REMARK   65  A    between atoms: _145  and  _146
REMARK   66  A    between atoms: _145  and  _148
REMARK   67  A    between atoms: _148  and  _149
REMARK   68  A    between atoms: _152  and  _154
REMARK   69  A    between atoms: _154  and  _155
REMARK   70  A    between atoms: _154  and  _157
REMARK   71  A    between atoms: _160  and  _162
REMARK   72  A    between atoms: _162  and  _163
REMARK   73  A    between atoms: _162  and  _165
REMARK   74  A    between atoms: _165  and  _166
REMARK   75  A    between atoms: _169  and  _171
REMARK   76  A    between atoms: _171  and  _172
REMARK   77  A    between atoms: _171  and  _174
REMARK   78  A    between atoms: _174  and  _175
REMARK   79  A    between atoms: _178  and  _180
REMARK   80  A    between atoms: _180  and  _181
REMARK   81  A    between atoms: _183  and  _185
REMARK   82  A    between atoms: _185  and  _186
REMARK   83  A    between atoms: _185  and  _188
REMARK   84  A    between atoms: _188  and  _189
REMARK   85  A    between atoms: _192  and  _194
REMARK   86  A    between atoms: _194  and  _195
REMARK   87  A    between atoms: _197  and  _199
REMARK   88  A    between atoms: _199  and  _200
REMARK   89  A    between atoms: _199  and  _202
REMARK   90  A    between atoms: _202  and  _203
REMARK   91  A    between atoms: _203  and  _204
REMARK   92  A    between atoms: _206  and  _208
REMARK   93  A    between atoms: _208  and  _209
REMARK   94  A    between atoms: _208  and  _211
REMARK   95  A    between atoms: _211  and  _212
REMARK   96  A    between atoms: _215  and  _217
REMARK   97  A    between atoms: _217  and  _218
REMARK   98  A    between atoms: _217  and  _220
REMARK   99  A    between atoms: _220  and  _221
REMARK  100  A    between atoms: _221  and  _222
REMARK  101  A    between atoms: _222  and  _223
REMARK  102  A    between atoms: _223  and  _224
REMARK  103  A    between atoms: _228  and  _230
REMARK  104  A    between atoms: _230  and  _231
REMARK  105  A    between atoms: _234  and  _236
REMARK  106  A    between atoms: _236  and  _237
REMARK  107  A    between atoms: _236  and  _239
REMARK  108  A    between atoms: _239  and  _240
REMARK  109  A    between atoms: _243  and  _245
REMARK  110  A    between atoms: _245  and  _246
REMARK  111  A    between atoms: _245  and  _248
REMARK  112  A    between atoms: _248  and  _249
REMARK  113  A    between atoms: _252  and  _254
REMARK  114  A    between atoms: _254  and  _255
REMARK  115  A    between atoms: _254  and  _257
REMARK  116  A    between atoms: _257  and  _258
REMARK  117  A    between atoms: _261  and  _263
REMARK  118  A    between atoms: _263  and  _264
REMARK  119  A    between atoms: _263  and  _266
REMARK  120  A    between atoms: _266  and  _267
REMARK  121  A    between atoms: _272  and  _274
REMARK  122  A    between atoms: _274  and  _275
REMARK  123  A    between atoms: _274  and  _277
REMARK  124  A    between atoms: _277  and  _278
REMARK  125  A    between atoms: _283  and  _285
REMARK  126  A    between atoms: _285  and  _286
REMARK  127  A    between atoms: _285  and  _288
REMARK  128  A    between atoms: _288  and  _289
REMARK  129  A    between atoms: _292  and  _294
REMARK  130  A    between atoms: _294  and  _295
REMARK  131  A    between atoms: _297  and  _299
REMARK  132  A    between atoms: _299  and  _300
REMARK  133  A    between atoms: _299  and  _302
REMARK  134  A    between atoms: _302  and  _303
REMARK  135  A    between atoms: _306  and  _308
REMARK  136  A    between atoms: _308  and  _309
REMARK  137  A    between atoms: _308  and  _311
REMARK  138  A    between atoms: _311  and  _312
REMARK  139  A    between atoms: _315  and  _317
REMARK  140  A    between atoms: _317  and  _318
REMARK  141  A    between atoms: _321  and  _323
REMARK  142  A    between atoms: _323  and  _324
REMARK  143  A    between atoms: _323  and  _326
REMARK  144  A    between atoms: _326  and  _327
REMARK  145  A    between atoms: _327  and  _328
REMARK  146  A    between atoms: _328  and  _329
REMARK  147  A    between atoms: _329  and  _330
REMARK  148  A    between atoms: _334  and  _336
REMARK  149  A    between atoms: _336  and  _337
REMARK  150  A    between atoms: _339  and  _341
REMARK  151  A    between atoms: _341  and  _342
REMARK  152  A    between atoms: _341  and  _344
REMARK  153  A    between atoms: _344  and  _345
REMARK  154  A    between atoms: _348  and  _350
REMARK  155  A    between atoms: _350  and  _351
REMARK  156  A    between atoms: _353  and  _355
REMARK  157  A    between atoms: _355  and  _356
REMARK  158  A    between atoms: _355  and  _358
REMARK  159  A    between atoms: _358  and  _359
REMARK  160  A    between atoms: _365  and  _367
REMARK  161  A    between atoms: _367  and  _368
REMARK  162  A    between atoms: _370  and  _372
REMARK  163  A    between atoms: _372  and  _373
REMARK  164  A    between atoms: _372  and  _375
REMARK  165  A    between atoms: _378  and  _380
REMARK  166  A    between atoms: _380  and  _381
REMARK  167  A    between atoms: _383  and  _385
REMARK  168  A    between atoms: _385  and  _386
REMARK  169  A    between atoms: _385  and  _388
REMARK  170  A    between atoms: _388  and  _389
REMARK  171  A    between atoms: _395  and  _397
REMARK  172  A    between atoms: _397  and  _398
REMARK  173  A    between atoms: _397  and  _400
REMARK  174  A    between atoms: _400  and  _401
REMARK  175  A    between atoms: _406  and  _407
REMARK  176  A    between atoms: _409  and  _411
REMARK  177  A    between atoms: _411  and  _412
REMARK  178  A    between atoms: _411  and  _414
REMARK  179  A    between atoms: _414  and  _415
REMARK  180  A    between atoms: _420  and  _421
REMARK  181  A    between atoms: _423  and  _425
REMARK  182  A    between atoms: _425  and  _426
REMARK  183  A    between atoms: _425  and  _428
REMARK  184  A    between atoms: _431  and  _433
REMARK  185  A    between atoms: _433  and  _434
REMARK  186  A    between atoms: _433  and  _436
REMARK  187  A    between atoms: _436  and  _437
REMARK  188  A    between atoms: _440  and  _442
REMARK  189  A    between atoms: _442  and  _443
REMARK  190  A    between atoms: _442  and  _445
REMARK  191  A    between atoms: _448  and  _450
REMARK  192  A    between atoms: _450  and  _451
REMARK  193  A    between atoms: _450  and  _453
REMARK  194  A    between atoms: _453  and  _454
REMARK  195  A    between atoms: _457  and  _459
REMARK  196  A    between atoms: _459  and  _460
REMARK  197  A    between atoms: _459  and  _462
REMARK  198  A    between atoms: _462  and  _463
REMARK  199  A    between atoms: _466  and  _468
REMARK  200  A    between atoms: _468  and  _469
REMARK  201  A    between atoms: _468  and  _471
REMARK  202  A    between atoms: _471  and  _472
REMARK  203  A    between atoms: _472  and  _473
REMARK  204  A    between atoms: _473  and  _474
REMARK  205  A    between atoms: _474  and  _475
REMARK  206  A    between atoms: _479  and  _481
REMARK  207  A    between atoms: _481  and  _482
REMARK  208  A    between atoms: _481  and  _484
REMARK  209  A    between atoms: _484  and  _485
REMARK  210  A    between atoms: _490  and  _492
REMARK  211  A    between atoms: _492  and  _493
REMARK  212  A    between atoms: _492  and  _495
REMARK  213  A    between atoms: _495  and  _496
REMARK  214  A    between atoms: _506  and  _508
REMARK  215  A    between atoms: _508  and  _509
REMARK  216  A    between atoms: _508  and  _511
REMARK  217  A    between atoms: _511  and  _512
REMARK  218  A    between atoms: _512  and  _513
REMARK  219  A    between atoms: _516  and  _518
REMARK  220  A    between atoms: _518  and  _519
REMARK  221  A    between atoms: _518  and  _521
REMARK  222  A    between atoms: _521  and  _522
REMARK  223  A    between atoms: _524  and  _526
REMARK  224  A    between atoms: _526  and  _527
REMARK  225  A    between atoms: _526  and  _529
REMARK  226  A    between atoms: _529  and  _530
REMARK  227  A    between atoms: _536  and  _538
REMARK  228  A    between atoms: _538  and  _539
REMARK  229  A    between atoms: _538  and  _541
REMARK  230  A    between atoms: _541  and  _542
REMARK  231  A    between atoms: _545  and  _547
REMARK  232  A    between atoms: _547  and  _548
REMARK  233  A    between atoms: _547  and  _550
REMARK  234  A    between atoms: _553  and  _555
REMARK  235  A    between atoms: _555  and  _556
REMARK  236  A    between atoms: _558  and  _560
REMARK  237  A    between atoms: _560  and  _561
REMARK  238  A    between atoms: _560  and  _563
REMARK  239  A    between atoms: _563  and  _564
REMARK  240  A    between atoms: _567  and  _569
REMARK  241  A    between atoms: _569  and  _570
REMARK  242  A    between atoms: _569  and  _572
REMARK  243  A    between atoms: _572  and  _573
REMARK  244  A    between atoms: _573  and  _574
REMARK  245  A    between atoms: _574  and  _575
REMARK  246  A    between atoms: _575  and  _576
REMARK  247  A    between atoms: _580  and  _582
REMARK  248  A    between atoms: _582  and  _583
REMARK  249  A    between atoms: _582  and  _585
REMARK                            x       y       z     vdW  Elec       q    Type
REMARK                         _______ _______ _______ _____ _____    ______ ____
ROOT
ATOM      1  O   HOH     1       4.456  -6.597 -17.901  0.00  0.00    +0.000 OA
ENDROOT
TORSDOF 0
REMARK  Name = ../refined-set-2016/4o05/4o05_pocket.pdb
REMARK  249 active torsions:
REMARK  status: ('A' for Active; 'I' for Inactive)
REMARK    1  A    between atoms: _1  and  _3
REMARK    2  A    between atoms: _3  and  _4
REMARK    3  A    between atoms: _3  and  _6
REMARK    4  A    between atoms: _6  and  _7
REMARK    5  A    between atoms: _13  and  _15
REMARK    6  A    between atoms: _15  and  _16
REMARK    7  A    between atoms: _15  and  _18
REMARK    8  A    between atoms: _18  and  _19
REMARK    9  A    between atoms: _19  and  _20
REMARK   10  A    between atoms: _25  and  _27
REMARK   11  A    between atoms: _27  and  _28
REMARK   12  A    between atoms: _27  and  _30
REMARK   13  A    between atoms: _30  and  _31
REMARK   14  A    between atoms: _34  and  _36
REMARK   15  A    between atoms: _36  and  _37
REMARK   16  A    between atoms: _36  and  _39
REMARK   17  A    between atoms: _39  and  _40
REMARK   18  A    between atoms: _40  and  _41
REMARK   19  A    between atoms: _44  and  _46
REMARK   20  A    between atoms: _46  and  _47
REMARK   21  A    between atoms: _46  and  _49
REMARK   22  A    between atoms: _49  and  _50
REMARK   23  A    between atoms: _53  and  _55
REMARK   24  A    between atoms: _55  and  _56
REMARK   25  A    between atoms: _55  and  _58
REMARK   26  A    between atoms: _58  and  _59
REMARK   27  A    between atoms: _62  and  _64
REMARK   28  A    between atoms: _64  and  _65
REMARK   29  A    between atoms: _64  and  _67
REMARK   30  A    between atoms: _67  and  _68
REMARK   31  A    between atoms: _70  and  _72
REMARK   32  A    between atoms: _72  and  _73
REMARK   33  A    between atoms: _72  and  _75
REMARK   34  A    between atoms: _75  and  _76
REMARK   35  A    between atoms: _81  and  _83
REMARK   36  A    between atoms: _83  and  _84
REMARK   37  A    between atoms: _83  and  _86
REMARK   38  A    between atoms: _86  and  _87
REMARK   39  A    between atoms: _89  and  _91
REMARK   40  A    between atoms: _91  and  _92
REMARK   41  A    between atoms: _91  and  _94
REMARK   42  A    between atoms: _94  and  _95
REMARK   43  A    between atoms: _97  and  _99
REMARK   44  A    between atoms: _99  and  _100
REMARK   45  A    between atoms: _99  and  _102
REMARK   46  A    between atoms: _102  and  _103
REMARK   47  A    between atoms: _106  and  _108
REMARK   48  A    between atoms: _108  and  _109
REMARK   49  A    between atoms: _112  and  _114
REMARK   50  A    between atoms: _114  and  _115
REMARK   51  A    between atoms: _114  and  _117
REMARK   52  A    between atoms: _117  and  _118
REMARK   53  A    between atoms: _121  and  _123
REMARK   54  A    between atoms: _123  and  _124
REMARK   55  A    between atoms: _123  and  _126
REMARK   56  A    between atoms: _126  and  _127
REMARK   57  A    between atoms: _127  and  _128
REMARK   58  A    between atoms: _128  and  _129
REMARK   59  A    between atoms: _129  and  _130
REMARK   60  A    between atoms: _134  and  _136
REMARK   61  A    between atoms: _136  and  _137
REMARK   62  A    between atoms: _136  and  _139
REMARK   63  A    between atoms: _139  and  _140
REMARK   64  A    between atoms: _143  and  _145
REMARK   65  A    between atoms: _145  and  _146
REMARK   66  A    between atoms: _145  and  _148
REMARK   67  A    between atoms: _148  and  _149
REMARK   68  A    between atoms: _152  and  _154
REMARK   69  A    between atoms: _154  and  _155
REMARK   70  A    between atoms: _154  and  _157
REMARK   71  A    between atoms: _160  and  _162
REMARK   72  A    between atoms: _162  and  _163
REMARK   73  A    between atoms: _162  and  _165
REMARK   74  A    between atoms: _165  and  _166
REMARK   75  A    between atoms: _169  and  _171
REMARK   76  A    between atoms: _171  and  _172
REMARK   77  A    between atoms: _171  and  _174
REMARK   78  A    between atoms: _174  and  _175
REMARK   79  A    between atoms: _178  and  _180
REMARK   80  A    between atoms: _180  and  _181
REMARK   81  A    between atoms: _183  and  _185
REMARK   82  A    between atoms: _185  and  _186
REMARK   83  A    between atoms: _185  and  _188
REMARK   84  A    between atoms: _188  and  _189
REMARK   85  A    between atoms: _192  and  _194
REMARK   86  A    between atoms: _194  and  _195
REMARK   87  A    between atoms: _197  and  _199
REMARK   88  A    between atoms: _199  and  _200
REMARK   89  A    between atoms: _199  and  _202
REMARK   90  A    between atoms: _202  and  _203
REMARK   91  A    between atoms: _203  and  _204
REMARK   92  A    between atoms: _206  and  _208
REMARK   93  A    between atoms: _208  and  _209
REMARK   94  A    between atoms: _208  and  _211
REMARK   95  A    between atoms: _211  and  _212
REMARK   96  A    between atoms: _215  and  _217
REMARK   97  A    between atoms: _217  and  _218
REMARK   98  A    between atoms: _217  and  _220
REMARK   99  A    between atoms: _220  and  _221
REMARK  100  A    between atoms: _221  and  _222
REMARK  101  A    between atoms: _222  and  _223
REMARK  102  A    between atoms: _223  and  _224
REMARK  103  A    between atoms: _228  and  _230
REMARK  104  A    between atoms: _230  and  _231
REMARK  105  A    between atoms: _234  and  _236
REMARK  106  A    between atoms: _236  and  _237
REMARK  107  A    between atoms: _236  and  _239
REMARK  108  A    between atoms: _239  and  _240
REMARK  109  A    between atoms: _243  and  _245
REMARK  110  A    between atoms: _245  and  _246
REMARK  111  A    between atoms: _245  and  _248
REMARK  112  A    between atoms: _248  and  _249
REMARK  113  A    between atoms: _252  and  _254
REMARK  114  A    between atoms: _254  and  _255
REMARK  115  A    between atoms: _254  and  _257
REMARK  116  A    between atoms: _257  and  _258
REMARK  117  A    between atoms: _261  and  _263
REMARK  118  A    between atoms: _263  and  _264
REMARK  119  A    between atoms: _263  and  _266
REMARK  120  A    between atoms: _266  and  _267
REMARK  121  A    between atoms: _272  and  _274
REMARK  122  A    between atoms: _274  and  _275
REMARK  123  A    between atoms: _274  and  _277
REMARK  124  A    between atoms: _277  and  _278
REMARK  125  A    between atoms: _283  and  _285
REMARK  126  A    between atoms: _285  and  _286
REMARK  127  A    between atoms: _285  and  _288
REMARK  128  A    between atoms: _288  and  _289
REMARK  129  A    between atoms: _292  and  _294
REMARK  130  A    between atoms: _294  and  _295
REMARK  131  A    between atoms: _297  and  _299
REMARK  132  A    between atoms: _299  and  _300
REMARK  133  A    between atoms: _299  and  _302
REMARK  134  A    between atoms: _302  and  _303
REMARK  135  A    between atoms: _306  and  _308
REMARK  136  A    between atoms: _308  and  _309
REMARK  137  A    between atoms: _308  and  _311
REMARK  138  A    between atoms: _311  and  _312
REMARK  139  A    between atoms: _315  and  _317
REMARK  140  A    between atoms: _317  and  _318
REMARK  141  A    between atoms: _321  and  _323
REMARK  142  A    between atoms: _323  and  _324
REMARK  143  A    between atoms: _323  and  _326
REMARK  144  A    between atoms: _326  and  _327
REMARK  145  A    between atoms: _327  and  _328
REMARK  146  A    between atoms: _328  and  _329
REMARK  147  A    between atoms: _329  and  _330
REMARK  148  A    between atoms: _334  and  _336
REMARK  149  A    between atoms: _336  and  _337
REMARK  150  A    between atoms: _339  and  _341
REMARK  151  A    between atoms: _341  and  _342
REMARK  152  A    between atoms: _341  and  _344
REMARK  153  A    between atoms: _344  and  _345
REMARK  154  A    between atoms: _348  and  _350
REMARK  155  A    between atoms: _350  and  _351
REMARK  156  A    between atoms: _353  and  _355
REMARK  157  A    between atoms: _355  and  _356
REMARK  158  A    between atoms: _355  and  _358
REMARK  159  A    between atoms: _358  and  _359
REMARK  160  A    between atoms: _365  and  _367
REMARK  161  A    between atoms: _367  and  _368
REMARK  162  A    between atoms: _370  and  _372
REMARK  163  A    between atoms: _372  and  _373
REMARK  164  A    between atoms: _372  and  _375
REMARK  165  A    between atoms: _378  and  _380
REMARK  166  A    between atoms: _380  and  _381
REMARK  167  A    between atoms: _383  and  _385
REMARK  168  A    between atoms: _385  and  _386
REMARK  169  A    between atoms: _385  and  _388
REMARK  170  A    between atoms: _388  and  _389
REMARK  171  A    between atoms: _395  and  _397
REMARK  172  A    between atoms: _397  and  _398
REMARK  173  A    between atoms: _397  and  _400
REMARK  174  A    between atoms: _400  and  _401
REMARK  175  A    between atoms: _406  and  _407
REMARK  176  A    between atoms: _409  and  _411
REMARK  177  A    between atoms: _411  and  _412
REMARK  178  A    between atoms: _411  and  _414
REMARK  179  A    between atoms: _414  and  _415
REMARK  180  A    between atoms: _420  and  _421
REMARK  181  A    between atoms: _423  and  _425
REMARK  182  A    between atoms: _425  and  _426
REMARK  183  A    between atoms: _425  and  _428
REMARK  184  A    between atoms: _431  and  _433
REMARK  185  A    between atoms: _433  and  _434
REMARK  186  A    between atoms: _433  and  _436
REMARK  187  A    between atoms: _436  and  _437
REMARK  188  A    between atoms: _440  and  _442
REMARK  189  A    between atoms: _442  and  _443
REMARK  190  A    between atoms: _442  and  _445
REMARK  191  A    between atoms: _448  and  _450
REMARK  192  A    between atoms: _450  and  _451
REMARK  193  A    between atoms: _450  and  _453
REMARK  194  A    between atoms: _453  and  _454
REMARK  195  A    between atoms: _457  and  _459
REMARK  196  A    between atoms: _459  and  _460
REMARK  197  A    between atoms: _459  and  _462
REMARK  198  A    between atoms: _462  and  _463
REMARK  199  A    between atoms: _466  and  _468
REMARK  200  A    between atoms: _468  and  _469
REMARK  201  A    between atoms: _468  and  _471
REMARK  202  A    between atoms: _471  and  _472
REMARK  203  A    between atoms: _472  and  _473
REMARK  204  A    between atoms: _473  and  _474
REMARK  205  A    between atoms: _474  and  _475
REMARK  206  A    between atoms: _479  and  _481
REMARK  207  A    between atoms: _481  and  _482
REMARK  208  A    between atoms: _481  and  _484
REMARK  209  A    between atoms: _484  and  _485
REMARK  210  A    between atoms: _490  and  _492
REMARK  211  A    between atoms: _492  and  _493
REMARK  212  A    between atoms: _492  and  _495
REMARK  213  A    between atoms: _495  and  _496
REMARK  214  A    between atoms: _506  and  _508
REMARK  215  A    between atoms: _508  and  _509
REMARK  216  A    between atoms: _508  and  _511
REMARK  217  A    between atoms: _511  and  _512
REMARK  218  A    between atoms: _512  and  _513
REMARK  219  A    between atoms: _516  and  _518
REMARK  220  A    between atoms: _518  and  _519
REMARK  221  A    between atoms: _518  and  _521
REMARK  222  A    between atoms: _521  and  _522
REMARK  223  A    between atoms: _524  and  _526
REMARK  224  A    between atoms: _526  and  _527
REMARK  225  A    between atoms: _526  and  _529
REMARK  226  A    between atoms: _529  and  _530
REMARK  227  A    between atoms: _536  and  _538
REMARK  228  A    between atoms: _538  and  _539
REMARK  229  A    between atoms: _538  and  _541
REMARK  230  A    between atoms: _541  and  _542
REMARK  231  A    between atoms: _545  and  _547
REMARK  232  A    between atoms: _547  and  _548
REMARK  233  A    between atoms: _547  and  _550
REMARK  234  A    between atoms: _553  and  _555
REMARK  235  A    between atoms: _555  and  _556
REMARK  236  A    between atoms: _558  and  _560
REMARK  237  A    between atoms: _560  and  _561
REMARK  238  A    between atoms: _560  and  _563
REMARK  239  A    between atoms: _563  and  _564
REMARK  240  A    between atoms: _567  and  _569
REMARK  241  A    between atoms: _569  and  _570
REMARK  242  A    between atoms: _569  and  _572
REMARK  243  A    between atoms: _572  and  _573
REMARK  244  A    between atoms: _573  and  _574
REMARK  245  A    between atoms: _574  and  _575
REMARK  246  A    between atoms: _575  and  _576
REMARK  247  A    between atoms: _580  and  _582
REMARK  248  A    between atoms: _582  and  _583
REMARK  249  A    between atoms: _582  and  _585
REMARK                            x       y       z     vdW  Elec       q    Type
REMARK                         _______ _______ _______ _____ _____    ______ ____
ROOT
ATOM      1  O   HOH     1       8.959  -4.575 -21.765  0.00  0.00    +0.000 OA
ENDROOT
TORSDOF 0
REMARK  Name = ../refined-set-2016/4o05/4o05_pocket.pdb
REMARK  249 active torsions:
REMARK  status: ('A' for Active; 'I' for Inactive)
REMARK    1  A    between atoms: _1  and  _3
REMARK    2  A    between atoms: _3  and  _4
REMARK    3  A    between atoms: _3  and  _6
REMARK    4  A    between atoms: _6  and  _7
REMARK    5  A    between atoms: _13  and  _15
REMARK    6  A    between atoms: _15  and  _16
REMARK    7  A    between atoms: _15  and  _18
REMARK    8  A    between atoms: _18  and  _19
REMARK    9  A    between atoms: _19  and  _20
REMARK   10  A    between atoms: _25  and  _27
REMARK   11  A    between atoms: _27  and  _28
REMARK   12  A    between atoms: _27  and  _30
REMARK   13  A    between atoms: _30  and  _31
REMARK   14  A    between atoms: _34  and  _36
REMARK   15  A    between atoms: _36  and  _37
REMARK   16  A    between atoms: _36  and  _39
REMARK   17  A    between atoms: _39  and  _40
REMARK   18  A    between atoms: _40  and  _41
REMARK   19  A    between atoms: _44  and  _46
REMARK   20  A    between atoms: _46  and  _47
REMARK   21  A    between atoms: _46  and  _49
REMARK   22  A    between atoms: _49  and  _50
REMARK   23  A    between atoms: _53  and  _55
REMARK   24  A    between atoms: _55  and  _56
REMARK   25  A    between atoms: _55  and  _58
REMARK   26  A    between atoms: _58  and  _59
REMARK   27  A    between atoms: _62  and  _64
REMARK   28  A    between atoms: _64  and  _65
REMARK   29  A    between atoms: _64  and  _67
REMARK   30  A    between atoms: _67  and  _68
REMARK   31  A    between atoms: _70  and  _72
REMARK   32  A    between atoms: _72  and  _73
REMARK   33  A    between atoms: _72  and  _75
REMARK   34  A    between atoms: _75  and  _76
REMARK   35  A    between atoms: _81  and  _83
REMARK   36  A    between atoms: _83  and  _84
REMARK   37  A    between atoms: _83  and  _86
REMARK   38  A    between atoms: _86  and  _87
REMARK   39  A    between atoms: _89  and  _91
REMARK   40  A    between atoms: _91  and  _92
REMARK   41  A    between atoms: _91  and  _94
REMARK   42  A    between atoms: _94  and  _95
REMARK   43  A    between atoms: _97  and  _99
REMARK   44  A    between atoms: _99  and  _100
REMARK   45  A    between atoms: _99  and  _102
REMARK   46  A    between atoms: _102  and  _103
REMARK   47  A    between atoms: _106  and  _108
REMARK   48  A    between atoms: _108  and  _109
REMARK   49  A    between atoms: _112  and  _114
REMARK   50  A    between atoms: _114  and  _115
REMARK   51  A    between atoms: _114  and  _117
REMARK   52  A    between atoms: _117  and  _118
REMARK   53  A    between atoms: _121  and  _123
REMARK   54  A    between atoms: _123  and  _124
REMARK   55  A    between atoms: _123  and  _126
REMARK   56  A    between atoms: _126  and  _127
REMARK   57  A    between atoms: _127  and  _128
REMARK   58  A    between atoms: _128  and  _129
REMARK   59  A    between atoms: _129  and  _130
REMARK   60  A    between atoms: _134  and  _136
REMARK   61  A    between atoms: _136  and  _137
REMARK   62  A    between atoms: _136  and  _139
REMARK   63  A    between atoms: _139  and  _140
REMARK   64  A    between atoms: _143  and  _145
REMARK   65  A    between atoms: _145  and  _146
REMARK   66  A    between atoms: _145  and  _148
REMARK   67  A    between atoms: _148  and  _149
REMARK   68  A    between atoms: _152  and  _154
REMARK   69  A    between atoms: _154  and  _155
REMARK   70  A    between atoms: _154  and  _157
REMARK   71  A    between atoms: _160  and  _162
REMARK   72  A    between atoms: _162  and  _163
REMARK   73  A    between atoms: _162  and  _165
REMARK   74  A    between atoms: _165  and  _166
REMARK   75  A    between atoms: _169  and  _171
REMARK   76  A    between atoms: _171  and  _172
REMARK   77  A    between atoms: _171  and  _174
REMARK   78  A    between atoms: _174  and  _175
REMARK   79  A    between atoms: _178  and  _180
REMARK   80  A    between atoms: _180  and  _181
REMARK   81  A    between atoms: _183  and  _185
REMARK   82  A    between atoms: _185  and  _186
REMARK   83  A    between atoms: _185  and  _188
REMARK   84  A    between atoms: _188  and  _189
REMARK   85  A    between atoms: _192  and  _194
REMARK   86  A    between atoms: _194  and  _195
REMARK   87  A    between atoms: _197  and  _199
REMARK   88  A    between atoms: _199  and  _200
REMARK   89  A    between atoms: _199  and  _202
REMARK   90  A    between atoms: _202  and  _203
REMARK   91  A    between atoms: _203  and  _204
REMARK   92  A    between atoms: _206  and  _208
REMARK   93  A    between atoms: _208  and  _209
REMARK   94  A    between atoms: _208  and  _211
REMARK   95  A    between atoms: _211  and  _212
REMARK   96  A    between atoms: _215  and  _217
REMARK   97  A    between atoms: _217  and  _218
REMARK   98  A    between atoms: _217  and  _220
REMARK   99  A    between atoms: _220  and  _221
REMARK  100  A    between atoms: _221  and  _222
REMARK  101  A    between atoms: _222  and  _223
REMARK  102  A    between atoms: _223  and  _224
REMARK  103  A    between atoms: _228  and  _230
REMARK  104  A    between atoms: _230  and  _231
REMARK  105  A    between atoms: _234  and  _236
REMARK  106  A    between atoms: _236  and  _237
REMARK  107  A    between atoms: _236  and  _239
REMARK  108  A    between atoms: _239  and  _240
REMARK  109  A    between atoms: _243  and  _245
REMARK  110  A    between atoms: _245  and  _246
REMARK  111  A    between atoms: _245  and  _248
REMARK  112  A    between atoms: _248  and  _249
REMARK  113  A    between atoms: _252  and  _254
REMARK  114  A    between atoms: _254  and  _255
REMARK  115  A    between atoms: _254  and  _257
REMARK  116  A    between atoms: _257  and  _258
REMARK  117  A    between atoms: _261  and  _263
REMARK  118  A    between atoms: _263  and  _264
REMARK  119  A    between atoms: _263  and  _266
REMARK  120  A    between atoms: _266  and  _267
REMARK  121  A    between atoms: _272  and  _274
REMARK  122  A    between atoms: _274  and  _275
REMARK  123  A    between atoms: _274  and  _277
REMARK  124  A    between atoms: _277  and  _278
REMARK  125  A    between atoms: _283  and  _285
REMARK  126  A    between atoms: _285  and  _286
REMARK  127  A    between atoms: _285  and  _288
REMARK  128  A    between atoms: _288  and  _289
REMARK  129  A    between atoms: _292  and  _294
REMARK  130  A    between atoms: _294  and  _295
REMARK  131  A    between atoms: _297  and  _299
REMARK  132  A    between atoms: _299  and  _300
REMARK  133  A    between atoms: _299  and  _302
REMARK  134  A    between atoms: _302  and  _303
REMARK  135  A    between atoms: _306  and  _308
REMARK  136  A    between atoms: _308  and  _309
REMARK  137  A    between atoms: _308  and  _311
REMARK  138  A    between atoms: _311  and  _312
REMARK  139  A    between atoms: _315  and  _317
REMARK  140  A    between atoms: _317  and  _318
REMARK  141  A    between atoms: _321  and  _323
REMARK  142  A    between atoms: _323  and  _324
REMARK  143  A    between atoms: _323  and  _326
REMARK  144  A    between atoms: _326  and  _327
REMARK  145  A    between atoms: _327  and  _328
REMARK  146  A    between atoms: _328  and  _329
REMARK  147  A    between atoms: _329  and  _330
REMARK  148  A    between atoms: _334  and  _336
REMARK  149  A    between atoms: _336  and  _337
REMARK  150  A    between atoms: _339  and  _341
REMARK  151  A    between atoms: _341  and  _342
REMARK  152  A    between atoms: _341  and  _344
REMARK  153  A    between atoms: _344  and  _345
REMARK  154  A    between atoms: _348  and  _350
REMARK  155  A    between atoms: _350  and  _351
REMARK  156  A    between atoms: _353  and  _355
REMARK  157  A    between atoms: _355  and  _356
REMARK  158  A    between atoms: _355  and  _358
REMARK  159  A    between atoms: _358  and  _359
REMARK  160  A    between atoms: _365  and  _367
REMARK  161  A    between atoms: _367  and  _368
REMARK  162  A    between atoms: _370  and  _372
REMARK  163  A    between atoms: _372  and  _373
REMARK  164  A    between atoms: _372  and  _375
REMARK  165  A    between atoms: _378  and  _380
REMARK  166  A    between atoms: _380  and  _381
REMARK  167  A    between atoms: _383  and  _385
REMARK  168  A    between atoms: _385  and  _386
REMARK  169  A    between atoms: _385  and  _388
REMARK  170  A    between atoms: _388  and  _389
REMARK  171  A    between atoms: _395  and  _397
REMARK  172  A    between atoms: _397  and  _398
REMARK  173  A    between atoms: _397  and  _400
REMARK  174  A    between atoms: _400  and  _401
REMARK  175  A    between atoms: _406  and  _407
REMARK  176  A    between atoms: _409  and  _411
REMARK  177  A    between atoms: _411  and  _412
REMARK  178  A    between atoms: _411  and  _414
REMARK  179  A    between atoms: _414  and  _415
REMARK  180  A    between atoms: _420  and  _421
REMARK  181  A    between atoms: _423  and  _425
REMARK  182  A    between atoms: _425  and  _426
REMARK  183  A    between atoms: _425  and  _428
REMARK  184  A    between atoms: _431  and  _433
REMARK  185  A    between atoms: _433  and  _434
REMARK  186  A    between atoms: _433  and  _436
REMARK  187  A    between atoms: _436  and  _437
REMARK  188  A    between atoms: _440  and  _442
REMARK  189  A    between atoms: _442  and  _443
REMARK  190  A    between atoms: _442  and  _445
REMARK  191  A    between atoms: _448  and  _450
REMARK  192  A    between atoms: _450  and  _451
REMARK  193  A    between atoms: _450  and  _453
REMARK  194  A    between atoms: _453  and  _454
REMARK  195  A    between atoms: _457  and  _459
REMARK  196  A    between atoms: _459  and  _460
REMARK  197  A    between atoms: _459  and  _462
REMARK  198  A    between atoms: _462  and  _463
REMARK  199  A    between atoms: _466  and  _468
REMARK  200  A    between atoms: _468  and  _469
REMARK  201  A    between atoms: _468  and  _471
REMARK  202  A    between atoms: _471  and  _472
REMARK  203  A    between atoms: _472  and  _473
REMARK  204  A    between atoms: _473  and  _474
REMARK  205  A    between atoms: _474  and  _475
REMARK  206  A    between atoms: _479  and  _481
REMARK  207  A    between atoms: _481  and  _482
REMARK  208  A    between atoms: _481  and  _484
REMARK  209  A    between atoms: _484  and  _485
REMARK  210  A    between atoms: _490  and  _492
REMARK  211  A    between atoms: _492  and  _493
REMARK  212  A    between atoms: _492  and  _495
REMARK  213  A    between atoms: _495  and  _496
REMARK  214  A    between atoms: _506  and  _508
REMARK  215  A    between atoms: _508  and  _509
REMARK  216  A    between atoms: _508  and  _511
REMARK  217  A    between atoms: _511  and  _512
REMARK  218  A    between atoms: _512  and  _513
REMARK  219  A    between atoms: _516  and  _518
REMARK  220  A    between atoms: _518  and  _519
REMARK  221  A    between atoms: _518  and  _521
REMARK  222  A    between atoms: _521  and  _522
REMARK  223  A    between atoms: _524  and  _526
REMARK  224  A    between atoms: _526  and  _527
REMARK  225  A    between atoms: _526  and  _529
REMARK  226  A    between atoms: _529  and  _530
REMARK  227  A    between atoms: _536  and  _538
REMARK  228  A    between atoms: _538  and  _539
REMARK  229  A    between atoms: _538  and  _541
REMARK  230  A    between atoms: _541  and  _542
REMARK  231  A    between atoms: _545  and  _547
REMARK  232  A    between atoms: _547  and  _548
REMARK  233  A    between atoms: _547  and  _550
REMARK  234  A    between atoms: _553  and  _555
REMARK  235  A    between atoms: _555  and  _556
REMARK  236  A    between atoms: _558  and  _560
REMARK  237  A    between atoms: _560  and  _561
REMARK  238  A    between atoms: _560  and  _563
REMARK  239  A    between atoms: _563  and  _564
REMARK  240  A    between atoms: _567  and  _569
REMARK  241  A    between atoms: _569  and  _570
REMARK  242  A    between atoms: _569  and  _572
REMARK  243  A    between atoms: _572  and  _573
REMARK  244  A    between atoms: _573  and  _574
REMARK  245  A    between atoms: _574  and  _575
REMARK  246  A    between atoms: _575  and  _576
REMARK  247  A    between atoms: _580  and  _582
REMARK  248  A    between atoms: _582  and  _583
REMARK  249  A    between atoms: _582  and  _585
REMARK                            x       y       z     vdW  Elec       q    Type
REMARK                         _______ _______ _______ _____ _____    ______ ____
ROOT
ATOM      1  O   HOH     1      -3.798 -15.064 -23.082  0.00  0.00    +0.000 OA
ENDROOT
TORSDOF 0
REMARK  Name = ../refined-set-2016/4o05/4o05_pocket.pdb
REMARK  249 active torsions:
REMARK  status: ('A' for Active; 'I' for Inactive)
REMARK    1  A    between atoms: _1  and  _3
REMARK    2  A    between atoms: _3  and  _4
REMARK    3  A    between atoms: _3  and  _6
REMARK    4  A    between atoms: _6  and  _7
REMARK    5  A    between atoms: _13  and  _15
REMARK    6  A    between atoms: _15  and  _16
REMARK    7  A    between atoms: _15  and  _18
REMARK    8  A    between atoms: _18  and  _19
REMARK    9  A    between atoms: _19  and  _20
REMARK   10  A    between atoms: _25  and  _27
REMARK   11  A    between atoms: _27  and  _28
REMARK   12  A    between atoms: _27  and  _30
REMARK   13  A    between atoms: _30  and  _31
REMARK   14  A    between atoms: _34  and  _36
REMARK   15  A    between atoms: _36  and  _37
REMARK   16  A    between atoms: _36  and  _39
REMARK   17  A    between atoms: _39  and  _40
REMARK   18  A    between atoms: _40  and  _41
REMARK   19  A    between atoms: _44  and  _46
REMARK   20  A    between atoms: _46  and  _47
REMARK   21  A    between atoms: _46  and  _49
REMARK   22  A    between atoms: _49  and  _50
REMARK   23  A    between atoms: _53  and  _55
REMARK   24  A    between atoms: _55  and  _56
REMARK   25  A    between atoms: _55  and  _58
REMARK   26  A    between atoms: _58  and  _59
REMARK   27  A    between atoms: _62  and  _64
REMARK   28  A    between atoms: _64  and  _65
REMARK   29  A    between atoms: _64  and  _67
REMARK   30  A    between atoms: _67  and  _68
REMARK   31  A    between atoms: _70  and  _72
REMARK   32  A    between atoms: _72  and  _73
REMARK   33  A    between atoms: _72  and  _75
REMARK   34  A    between atoms: _75  and  _76
REMARK   35  A    between atoms: _81  and  _83
REMARK   36  A    between atoms: _83  and  _84
REMARK   37  A    between atoms: _83  and  _86
REMARK   38  A    between atoms: _86  and  _87
REMARK   39  A    between atoms: _89  and  _91
REMARK   40  A    between atoms: _91  and  _92
REMARK   41  A    between atoms: _91  and  _94
REMARK   42  A    between atoms: _94  and  _95
REMARK   43  A    between atoms: _97  and  _99
REMARK   44  A    between atoms: _99  and  _100
REMARK   45  A    between atoms: _99  and  _102
REMARK   46  A    between atoms: _102  and  _103
REMARK   47  A    between atoms: _106  and  _108
REMARK   48  A    between atoms: _108  and  _109
REMARK   49  A    between atoms: _112  and  _114
REMARK   50  A    between atoms: _114  and  _115
REMARK   51  A    between atoms: _114  and  _117
REMARK   52  A    between atoms: _117  and  _118
REMARK   53  A    between atoms: _121  and  _123
REMARK   54  A    between atoms: _123  and  _124
REMARK   55  A    between atoms: _123  and  _126
REMARK   56  A    between atoms: _126  and  _127
REMARK   57  A    between atoms: _127  and  _128
REMARK   58  A    between atoms: _128  and  _129
REMARK   59  A    between atoms: _129  and  _130
REMARK   60  A    between atoms: _134  and  _136
REMARK   61  A    between atoms: _136  and  _137
REMARK   62  A    between atoms: _136  and  _139
REMARK   63  A    between atoms: _139  and  _140
REMARK   64  A    between atoms: _143  and  _145
REMARK   65  A    between atoms: _145  and  _146
REMARK   66  A    between atoms: _145  and  _148
REMARK   67  A    between atoms: _148  and  _149
REMARK   68  A    between atoms: _152  and  _154
REMARK   69  A    between atoms: _154  and  _155
REMARK   70  A    between atoms: _154  and  _157
REMARK   71  A    between atoms: _160  and  _162
REMARK   72  A    between atoms: _162  and  _163
REMARK   73  A    between atoms: _162  and  _165
REMARK   74  A    between atoms: _165  and  _166
REMARK   75  A    between atoms: _169  and  _171
REMARK   76  A    between atoms: _171  and  _172
REMARK   77  A    between atoms: _171  and  _174
REMARK   78  A    between atoms: _174  and  _175
REMARK   79  A    between atoms: _178  and  _180
REMARK   80  A    between atoms: _180  and  _181
REMARK   81  A    between atoms: _183  and  _185
REMARK   82  A    between atoms: _185  and  _186
REMARK   83  A    between atoms: _185  and  _188
REMARK   84  A    between atoms: _188  and  _189
REMARK   85  A    between atoms: _192  and  _194
REMARK   86  A    between atoms: _194  and  _195
REMARK   87  A    between atoms: _197  and  _199
REMARK   88  A    between atoms: _199  and  _200
REMARK   89  A    between atoms: _199  and  _202
REMARK   90  A    between atoms: _202  and  _203
REMARK   91  A    between atoms: _203  and  _204
REMARK   92  A    between atoms: _206  and  _208
REMARK   93  A    between atoms: _208  and  _209
REMARK   94  A    between atoms: _208  and  _211
REMARK   95  A    between atoms: _211  and  _212
REMARK   96  A    between atoms: _215  and  _217
REMARK   97  A    between atoms: _217  and  _218
REMARK   98  A    between atoms: _217  and  _220
REMARK   99  A    between atoms: _220  and  _221
REMARK  100  A    between atoms: _221  and  _222
REMARK  101  A    between atoms: _222  and  _223
REMARK  102  A    between atoms: _223  and  _224
REMARK  103  A    between atoms: _228  and  _230
REMARK  104  A    between atoms: _230  and  _231
REMARK  105  A    between atoms: _234  and  _236
REMARK  106  A    between atoms: _236  and  _237
REMARK  107  A    between atoms: _236  and  _239
REMARK  108  A    between atoms: _239  and  _240
REMARK  109  A    between atoms: _243  and  _245
REMARK  110  A    between atoms: _245  and  _246
REMARK  111  A    between atoms: _245  and  _248
REMARK  112  A    between atoms: _248  and  _249
REMARK  113  A    between atoms: _252  and  _254
REMARK  114  A    between atoms: _254  and  _255
REMARK  115  A    between atoms: _254  and  _257
REMARK  116  A    between atoms: _257  and  _258
REMARK  117  A    between atoms: _261  and  _263
REMARK  118  A    between atoms: _263  and  _264
REMARK  119  A    between atoms: _263  and  _266
REMARK  120  A    between atoms: _266  and  _267
REMARK  121  A    between atoms: _272  and  _274
REMARK  122  A    between atoms: _274  and  _275
REMARK  123  A    between atoms: _274  and  _277
REMARK  124  A    between atoms: _277  and  _278
REMARK  125  A    between atoms: _283  and  _285
REMARK  126  A    between atoms: _285  and  _286
REMARK  127  A    between atoms: _285  and  _288
REMARK  128  A    between atoms: _288  and  _289
REMARK  129  A    between atoms: _292  and  _294
REMARK  130  A    between atoms: _294  and  _295
REMARK  131  A    between atoms: _297  and  _299
REMARK  132  A    between atoms: _299  and  _300
REMARK  133  A    between atoms: _299  and  _302
REMARK  134  A    between atoms: _302  and  _303
REMARK  135  A    between atoms: _306  and  _308
REMARK  136  A    between atoms: _308  and  _309
REMARK  137  A    between atoms: _308  and  _311
REMARK  138  A    between atoms: _311  and  _312
REMARK  139  A    between atoms: _315  and  _317
REMARK  140  A    between atoms: _317  and  _318
REMARK  141  A    between atoms: _321  and  _323
REMARK  142  A    between atoms: _323  and  _324
REMARK  143  A    between atoms: _323  and  _326
REMARK  144  A    between atoms: _326  and  _327
REMARK  145  A    between atoms: _327  and  _328
REMARK  146  A    between atoms: _328  and  _329
REMARK  147  A    between atoms: _329  and  _330
REMARK  148  A    between atoms: _334  and  _336
REMARK  149  A    between atoms: _336  and  _337
REMARK  150  A    between atoms: _339  and  _341
REMARK  151  A    between atoms: _341  and  _342
REMARK  152  A    between atoms: _341  and  _344
REMARK  153  A    between atoms: _344  and  _345
REMARK  154  A    between atoms: _348  and  _350
REMARK  155  A    between atoms: _350  and  _351
REMARK  156  A    between atoms: _353  and  _355
REMARK  157  A    between atoms: _355  and  _356
REMARK  158  A    between atoms: _355  and  _358
REMARK  159  A    between atoms: _358  and  _359
REMARK  160  A    between atoms: _365  and  _367
REMARK  161  A    between atoms: _367  and  _368
REMARK  162  A    between atoms: _370  and  _372
REMARK  163  A    between atoms: _372  and  _373
REMARK  164  A    between atoms: _372  and  _375
REMARK  165  A    between atoms: _378  and  _380
REMARK  166  A    between atoms: _380  and  _381
REMARK  167  A    between atoms: _383  and  _385
REMARK  168  A    between atoms: _385  and  _386
REMARK  169  A    between atoms: _385  and  _388
REMARK  170  A    between atoms: _388  and  _389
REMARK  171  A    between atoms: _395  and  _397
REMARK  172  A    between atoms: _397  and  _398
REMARK  173  A    between atoms: _397  and  _400
REMARK  174  A    between atoms: _400  and  _401
REMARK  175  A    between atoms: _406  and  _407
REMARK  176  A    between atoms: _409  and  _411
REMARK  177  A    between atoms: _411  and  _412
REMARK  178  A    between atoms: _411  and  _414
REMARK  179  A    between atoms: _414  and  _415
REMARK  180  A    between atoms: _420  and  _421
REMARK  181  A    between atoms: _423  and  _425
REMARK  182  A    between atoms: _425  and  _426
REMARK  183  A    between atoms: _425  and  _428
REMARK  184  A    between atoms: _431  and  _433
REMARK  185  A    between atoms: _433  and  _434
REMARK  186  A    between atoms: _433  and  _436
REMARK  187  A    between atoms: _436  and  _437
REMARK  188  A    between atoms: _440  and  _442
REMARK  189  A    between atoms: _442  and  _443
REMARK  190  A    between atoms: _442  and  _445
REMARK  191  A    between atoms: _448  and  _450
REMARK  192  A    between atoms: _450  and  _451
REMARK  193  A    between atoms: _450  and  _453
REMARK  194  A    between atoms: _453  and  _454
REMARK  195  A    between atoms: _457  and  _459
REMARK  196  A    between atoms: _459  and  _460
REMARK  197  A    between atoms: _459  and  _462
REMARK  198  A    between atoms: _462  and  _463
REMARK  199  A    between atoms: _466  and  _468
REMARK  200  A    between atoms: _468  and  _469
REMARK  201  A    between atoms: _468  and  _471
REMARK  202  A    between atoms: _471  and  _472
REMARK  203  A    between atoms: _472  and  _473
REMARK  204  A    between atoms: _473  and  _474
REMARK  205  A    between atoms: _474  and  _475
REMARK  206  A    between atoms: _479  and  _481
REMARK  207  A    between atoms: _481  and  _482
REMARK  208  A    between atoms: _481  and  _484
REMARK  209  A    between atoms: _484  and  _485
REMARK  210  A    between atoms: _490  and  _492
REMARK  211  A    between atoms: _492  and  _493
REMARK  212  A    between atoms: _492  and  _495
REMARK  213  A    between atoms: _495  and  _496
REMARK  214  A    between atoms: _506  and  _508
REMARK  215  A    between atoms: _508  and  _509
REMARK  216  A    between atoms: _508  and  _511
REMARK  217  A    between atoms: _511  and  _512
REMARK  218  A    between atoms: _512  and  _513
REMARK  219  A    between atoms: _516  and  _518
REMARK  220  A    between atoms: _518  and  _519
REMARK  221  A    between atoms: _518  and  _521
REMARK  222  A    between atoms: _521  and  _522
REMARK  223  A    between atoms: _524  and  _526
REMARK  224  A    between atoms: _526  and  _527
REMARK  225  A    between atoms: _526  and  _529
REMARK  226  A    between atoms: _529  and  _530
REMARK  227  A    between atoms: _536  and  _538
REMARK  228  A    between atoms: _538  and  _539
REMARK  229  A    between atoms: _538  and  _541
REMARK  230  A    between atoms: _541  and  _542
REMARK  231  A    between atoms: _545  and  _547
REMARK  232  A    between atoms: _547  and  _548
REMARK  233  A    between atoms: _547  and  _550
REMARK  234  A    between atoms: _553  and  _555
REMARK  235  A    between atoms: _555  and  _556
REMARK  236  A    between atoms: _558  and  _560
REMARK  237  A    between atoms: _560  and  _561
REMARK  238  A    between atoms: _560  and  _563
REMARK  239  A    between atoms: _563  and  _564
REMARK  240  A    between atoms: _567  and  _569
REMARK  241  A    between atoms: _569  and  _570
REMARK  242  A    between atoms: _569  and  _572
REMARK  243  A    between atoms: _572  and  _573
REMARK  244  A    between atoms: _573  and  _574
REMARK  245  A    between atoms: _574  and  _575
REMARK  246  A    between atoms: _575  and  _576
REMARK  247  A    between atoms: _580  and  _582
REMARK  248  A    between atoms: _582  and  _583
REMARK  249  A    between atoms: _582  and  _585
REMARK                            x       y       z     vdW  Elec       q    Type
REMARK                         _______ _______ _______ _____ _____    ______ ____
ROOT
ATOM      1  O   HOH     1       1.369  -7.838 -31.826  0.00  0.00    +0.000 OA
ENDROOT
TORSDOF 0
REMARK  Name = ../refined-set-2016/4o05/4o05_pocket.pdb
REMARK  249 active torsions:
REMARK  status: ('A' for Active; 'I' for Inactive)
REMARK    1  A    between atoms: _1  and  _3
REMARK    2  A    between atoms: _3  and  _4
REMARK    3  A    between atoms: _3  and  _6
REMARK    4  A    between atoms: _6  and  _7
REMARK    5  A    between atoms: _13  and  _15
REMARK    6  A    between atoms: _15  and  _16
REMARK    7  A    between atoms: _15  and  _18
REMARK    8  A    between atoms: _18  and  _19
REMARK    9  A    between atoms: _19  and  _20
REMARK   10  A    between atoms: _25  and  _27
REMARK   11  A    between atoms: _27  and  _28
REMARK   12  A    between atoms: _27  and  _30
REMARK   13  A    between atoms: _30  and  _31
REMARK   14  A    between atoms: _34  and  _36
REMARK   15  A    between atoms: _36  and  _37
REMARK   16  A    between atoms: _36  and  _39
REMARK   17  A    between atoms: _39  and  _40
REMARK   18  A    between atoms: _40  and  _41
REMARK   19  A    between atoms: _44  and  _46
REMARK   20  A    between atoms: _46  and  _47
REMARK   21  A    between atoms: _46  and  _49
REMARK   22  A    between atoms: _49  and  _50
REMARK   23  A    between atoms: _53  and  _55
REMARK   24  A    between atoms: _55  and  _56
REMARK   25  A    between atoms: _55  and  _58
REMARK   26  A    between atoms: _58  and  _59
REMARK   27  A    between atoms: _62  and  _64
REMARK   28  A    between atoms: _64  and  _65
REMARK   29  A    between atoms: _64  and  _67
REMARK   30  A    between atoms: _67  and  _68
REMARK   31  A    between atoms: _70  and  _72
REMARK   32  A    between atoms: _72  and  _73
REMARK   33  A    between atoms: _72  and  _75
REMARK   34  A    between atoms: _75  and  _76
REMARK   35  A    between atoms: _81  and  _83
REMARK   36  A    between atoms: _83  and  _84
REMARK   37  A    between atoms: _83  and  _86
REMARK   38  A    between atoms: _86  and  _87
REMARK   39  A    between atoms: _89  and  _91
REMARK   40  A    between atoms: _91  and  _92
REMARK   41  A    between atoms: _91  and  _94
REMARK   42  A    between atoms: _94  and  _95
REMARK   43  A    between atoms: _97  and  _99
REMARK   44  A    between atoms: _99  and  _100
REMARK   45  A    between atoms: _99  and  _102
REMARK   46  A    between atoms: _102  and  _103
REMARK   47  A    between atoms: _106  and  _108
REMARK   48  A    between atoms: _108  and  _109
REMARK   49  A    between atoms: _112  and  _114
REMARK   50  A    between atoms: _114  and  _115
REMARK   51  A    between atoms: _114  and  _117
REMARK   52  A    between atoms: _117  and  _118
REMARK   53  A    between atoms: _121  and  _123
REMARK   54  A    between atoms: _123  and  _124
REMARK   55  A    between atoms: _123  and  _126
REMARK   56  A    between atoms: _126  and  _127
REMARK   57  A    between atoms: _127  and  _128
REMARK   58  A    between atoms: _128  and  _129
REMARK   59  A    between atoms: _129  and  _130
REMARK   60  A    between atoms: _134  and  _136
REMARK   61  A    between atoms: _136  and  _137
REMARK   62  A    between atoms: _136  and  _139
REMARK   63  A    between atoms: _139  and  _140
REMARK   64  A    between atoms: _143  and  _145
REMARK   65  A    between atoms: _145  and  _146
REMARK   66  A    between atoms: _145  and  _148
REMARK   67  A    between atoms: _148  and  _149
REMARK   68  A    between atoms: _152  and  _154
REMARK   69  A    between atoms: _154  and  _155
REMARK   70  A    between atoms: _154  and  _157
REMARK   71  A    between atoms: _160  and  _162
REMARK   72  A    between atoms: _162  and  _163
REMARK   73  A    between atoms: _162  and  _165
REMARK   74  A    between atoms: _165  and  _166
REMARK   75  A    between atoms: _169  and  _171
REMARK   76  A    between atoms: _171  and  _172
REMARK   77  A    between atoms: _171  and  _174
REMARK   78  A    between atoms: _174  and  _175
REMARK   79  A    between atoms: _178  and  _180
REMARK   80  A    between atoms: _180  and  _181
REMARK   81  A    between atoms: _183  and  _185
REMARK   82  A    between atoms: _185  and  _186
REMARK   83  A    between atoms: _185  and  _188
REMARK   84  A    between atoms: _188  and  _189
REMARK   85  A    between atoms: _192  and  _194
REMARK   86  A    between atoms: _194  and  _195
REMARK   87  A    between atoms: _197  and  _199
REMARK   88  A    between atoms: _199  and  _200
REMARK   89  A    between atoms: _199  and  _202
REMARK   90  A    between atoms: _202  and  _203
REMARK   91  A    between atoms: _203  and  _204
REMARK   92  A    between atoms: _206  and  _208
REMARK   93  A    between atoms: _208  and  _209
REMARK   94  A    between atoms: _208  and  _211
REMARK   95  A    between atoms: _211  and  _212
REMARK   96  A    between atoms: _215  and  _217
REMARK   97  A    between atoms: _217  and  _218
REMARK   98  A    between atoms: _217  and  _220
REMARK   99  A    between atoms: _220  and  _221
REMARK  100  A    between atoms: _221  and  _222
REMARK  101  A    between atoms: _222  and  _223
REMARK  102  A    between atoms: _223  and  _224
REMARK  103  A    between atoms: _228  and  _230
REMARK  104  A    between atoms: _230  and  _231
REMARK  105  A    between atoms: _234  and  _236
REMARK  106  A    between atoms: _236  and  _237
REMARK  107  A    between atoms: _236  and  _239
REMARK  108  A    between atoms: _239  and  _240
REMARK  109  A    between atoms: _243  and  _245
REMARK  110  A    between atoms: _245  and  _246
REMARK  111  A    between atoms: _245  and  _248
REMARK  112  A    between atoms: _248  and  _249
REMARK  113  A    between atoms: _252  and  _254
REMARK  114  A    between atoms: _254  and  _255
REMARK  115  A    between atoms: _254  and  _257
REMARK  116  A    between atoms: _257  and  _258
REMARK  117  A    between atoms: _261  and  _263
REMARK  118  A    between atoms: _263  and  _264
REMARK  119  A    between atoms: _263  and  _266
REMARK  120  A    between atoms: _266  and  _267
REMARK  121  A    between atoms: _272  and  _274
REMARK  122  A    between atoms: _274  and  _275
REMARK  123  A    between atoms: _274  and  _277
REMARK  124  A    between atoms: _277  and  _278
REMARK  125  A    between atoms: _283  and  _285
REMARK  126  A    between atoms: _285  and  _286
REMARK  127  A    between atoms: _285  and  _288
REMARK  128  A    between atoms: _288  and  _289
REMARK  129  A    between atoms: _292  and  _294
REMARK  130  A    between atoms: _294  and  _295
REMARK  131  A    between atoms: _297  and  _299
REMARK  132  A    between atoms: _299  and  _300
REMARK  133  A    between atoms: _299  and  _302
REMARK  134  A    between atoms: _302  and  _303
REMARK  135  A    between atoms: _306  and  _308
REMARK  136  A    between atoms: _308  and  _309
REMARK  137  A    between atoms: _308  and  _311
REMARK  138  A    between atoms: _311  and  _312
REMARK  139  A    between atoms: _315  and  _317
REMARK  140  A    between atoms: _317  and  _318
REMARK  141  A    between atoms: _321  and  _323
REMARK  142  A    between atoms: _323  and  _324
REMARK  143  A    between atoms: _323  and  _326
REMARK  144  A    between atoms: _326  and  _327
REMARK  145  A    between atoms: _327  and  _328
REMARK  146  A    between atoms: _328  and  _329
REMARK  147  A    between atoms: _329  and  _330
REMARK  148  A    between atoms: _334  and  _336
REMARK  149  A    between atoms: _336  and  _337
REMARK  150  A    between atoms: _339  and  _341
REMARK  151  A    between atoms: _341  and  _342
REMARK  152  A    between atoms: _341  and  _344
REMARK  153  A    between atoms: _344  and  _345
REMARK  154  A    between atoms: _348  and  _350
REMARK  155  A    between atoms: _350  and  _351
REMARK  156  A    between atoms: _353  and  _355
REMARK  157  A    between atoms: _355  and  _356
REMARK  158  A    between atoms: _355  and  _358
REMARK  159  A    between atoms: _358  and  _359
REMARK  160  A    between atoms: _365  and  _367
REMARK  161  A    between atoms: _367  and  _368
REMARK  162  A    between atoms: _370  and  _372
REMARK  163  A    between atoms: _372  and  _373
REMARK  164  A    between atoms: _372  and  _375
REMARK  165  A    between atoms: _378  and  _380
REMARK  166  A    between atoms: _380  and  _381
REMARK  167  A    between atoms: _383  and  _385
REMARK  168  A    between atoms: _385  and  _386
REMARK  169  A    between atoms: _385  and  _388
REMARK  170  A    between atoms: _388  and  _389
REMARK  171  A    between atoms: _395  and  _397
REMARK  172  A    between atoms: _397  and  _398
REMARK  173  A    between atoms: _397  and  _400
REMARK  174  A    between atoms: _400  and  _401
REMARK  175  A    between atoms: _406  and  _407
REMARK  176  A    between atoms: _409  and  _411
REMARK  177  A    between atoms: _411  and  _412
REMARK  178  A    between atoms: _411  and  _414
REMARK  179  A    between atoms: _414  and  _415
REMARK  180  A    between atoms: _420  and  _421
REMARK  181  A    between atoms: _423  and  _425
REMARK  182  A    between atoms: _425  and  _426
REMARK  183  A    between atoms: _425  and  _428
REMARK  184  A    between atoms: _431  and  _433
REMARK  185  A    between atoms: _433  and  _434
REMARK  186  A    between atoms: _433  and  _436
REMARK  187  A    between atoms: _436  and  _437
REMARK  188  A    between atoms: _440  and  _442
REMARK  189  A    between atoms: _442  and  _443
REMARK  190  A    between atoms: _442  and  _445
REMARK  191  A    between atoms: _448  and  _450
REMARK  192  A    between atoms: _450  and  _451
REMARK  193  A    between atoms: _450  and  _453
REMARK  194  A    between atoms: _453  and  _454
REMARK  195  A    between atoms: _457  and  _459
REMARK  196  A    between atoms: _459  and  _460
REMARK  197  A    between atoms: _459  and  _462
REMARK  198  A    between atoms: _462  and  _463
REMARK  199  A    between atoms: _466  and  _468
REMARK  200  A    between atoms: _468  and  _469
REMARK  201  A    between atoms: _468  and  _471
REMARK  202  A    between atoms: _471  and  _472
REMARK  203  A    between atoms: _472  and  _473
REMARK  204  A    between atoms: _473  and  _474
REMARK  205  A    between atoms: _474  and  _475
REMARK  206  A    between atoms: _479  and  _481
REMARK  207  A    between atoms: _481  and  _482
REMARK  208  A    between atoms: _481  and  _484
REMARK  209  A    between atoms: _484  and  _485
REMARK  210  A    between atoms: _490  and  _492
REMARK  211  A    between atoms: _492  and  _493
REMARK  212  A    between atoms: _492  and  _495
REMARK  213  A    between atoms: _495  and  _496
REMARK  214  A    between atoms: _506  and  _508
REMARK  215  A    between atoms: _508  and  _509
REMARK  216  A    between atoms: _508  and  _511
REMARK  217  A    between atoms: _511  and  _512
REMARK  218  A    between atoms: _512  and  _513
REMARK  219  A    between atoms: _516  and  _518
REMARK  220  A    between atoms: _518  and  _519
REMARK  221  A    between atoms: _518  and  _521
REMARK  222  A    between atoms: _521  and  _522
REMARK  223  A    between atoms: _524  and  _526
REMARK  224  A    between atoms: _526  and  _527
REMARK  225  A    between atoms: _526  and  _529
REMARK  226  A    between atoms: _529  and  _530
REMARK  227  A    between atoms: _536  and  _538
REMARK  228  A    between atoms: _538  and  _539
REMARK  229  A    between atoms: _538  and  _541
REMARK  230  A    between atoms: _541  and  _542
REMARK  231  A    between atoms: _545  and  _547
REMARK  232  A    between atoms: _547  and  _548
REMARK  233  A    between atoms: _547  and  _550
REMARK  234  A    between atoms: _553  and  _555
REMARK  235  A    between atoms: _555  and  _556
REMARK  236  A    between atoms: _558  and  _560
REMARK  237  A    between atoms: _560  and  _561
REMARK  238  A    between atoms: _560  and  _563
REMARK  239  A    between atoms: _563  and  _564
REMARK  240  A    between atoms: _567  and  _569
REMARK  241  A    between atoms: _569  and  _570
REMARK  242  A    between atoms: _569  and  _572
REMARK  243  A    between atoms: _572  and  _573
REMARK  244  A    between atoms: _573  and  _574
REMARK  245  A    between atoms: _574  and  _575
REMARK  246  A    between atoms: _575  and  _576
REMARK  247  A    between atoms: _580  and  _582
REMARK  248  A    between atoms: _582  and  _583
REMARK  249  A    between atoms: _582  and  _585
REMARK                            x       y       z     vdW  Elec       q    Type
REMARK                         _______ _______ _______ _____ _____    ______ ____
ROOT
ATOM      1  O   HOH     1      -2.509 -14.154 -20.542  0.00  0.00    +0.000 OA
ENDROOT
TORSDOF 0
REMARK  Name = ../refined-set-2016/4o05/4o05_pocket.pdb
REMARK  249 active torsions:
REMARK  status: ('A' for Active; 'I' for Inactive)
REMARK    1  A    between atoms: _1  and  _3
REMARK    2  A    between atoms: _3  and  _4
REMARK    3  A    between atoms: _3  and  _6
REMARK    4  A    between atoms: _6  and  _7
REMARK    5  A    between atoms: _13  and  _15
REMARK    6  A    between atoms: _15  and  _16
REMARK    7  A    between atoms: _15  and  _18
REMARK    8  A    between atoms: _18  and  _19
REMARK    9  A    between atoms: _19  and  _20
REMARK   10  A    between atoms: _25  and  _27
REMARK   11  A    between atoms: _27  and  _28
REMARK   12  A    between atoms: _27  and  _30
REMARK   13  A    between atoms: _30  and  _31
REMARK   14  A    between atoms: _34  and  _36
REMARK   15  A    between atoms: _36  and  _37
REMARK   16  A    between atoms: _36  and  _39
REMARK   17  A    between atoms: _39  and  _40
REMARK   18  A    between atoms: _40  and  _41
REMARK   19  A    between atoms: _44  and  _46
REMARK   20  A    between atoms: _46  and  _47
REMARK   21  A    between atoms: _46  and  _49
REMARK   22  A    between atoms: _49  and  _50
REMARK   23  A    between atoms: _53  and  _55
REMARK   24  A    between atoms: _55  and  _56
REMARK   25  A    between atoms: _55  and  _58
REMARK   26  A    between atoms: _58  and  _59
REMARK   27  A    between atoms: _62  and  _64
REMARK   28  A    between atoms: _64  and  _65
REMARK   29  A    between atoms: _64  and  _67
REMARK   30  A    between atoms: _67  and  _68
REMARK   31  A    between atoms: _70  and  _72
REMARK   32  A    between atoms: _72  and  _73
REMARK   33  A    between atoms: _72  and  _75
REMARK   34  A    between atoms: _75  and  _76
REMARK   35  A    between atoms: _81  and  _83
REMARK   36  A    between atoms: _83  and  _84
REMARK   37  A    between atoms: _83  and  _86
REMARK   38  A    between atoms: _86  and  _87
REMARK   39  A    between atoms: _89  and  _91
REMARK   40  A    between atoms: _91  and  _92
REMARK   41  A    between atoms: _91  and  _94
REMARK   42  A    between atoms: _94  and  _95
REMARK   43  A    between atoms: _97  and  _99
REMARK   44  A    between atoms: _99  and  _100
REMARK   45  A    between atoms: _99  and  _102
REMARK   46  A    between atoms: _102  and  _103
REMARK   47  A    between atoms: _106  and  _108
REMARK   48  A    between atoms: _108  and  _109
REMARK   49  A    between atoms: _112  and  _114
REMARK   50  A    between atoms: _114  and  _115
REMARK   51  A    between atoms: _114  and  _117
REMARK   52  A    between atoms: _117  and  _118
REMARK   53  A    between atoms: _121  and  _123
REMARK   54  A    between atoms: _123  and  _124
REMARK   55  A    between atoms: _123  and  _126
REMARK   56  A    between atoms: _126  and  _127
REMARK   57  A    between atoms: _127  and  _128
REMARK   58  A    between atoms: _128  and  _129
REMARK   59  A    between atoms: _129  and  _130
REMARK   60  A    between atoms: _134  and  _136
REMARK   61  A    between atoms: _136  and  _137
REMARK   62  A    between atoms: _136  and  _139
REMARK   63  A    between atoms: _139  and  _140
REMARK   64  A    between atoms: _143  and  _145
REMARK   65  A    between atoms: _145  and  _146
REMARK   66  A    between atoms: _145  and  _148
REMARK   67  A    between atoms: _148  and  _149
REMARK   68  A    between atoms: _152  and  _154
REMARK   69  A    between atoms: _154  and  _155
REMARK   70  A    between atoms: _154  and  _157
REMARK   71  A    between atoms: _160  and  _162
REMARK   72  A    between atoms: _162  and  _163
REMARK   73  A    between atoms: _162  and  _165
REMARK   74  A    between atoms: _165  and  _166
REMARK   75  A    between atoms: _169  and  _171
REMARK   76  A    between atoms: _171  and  _172
REMARK   77  A    between atoms: _171  and  _174
REMARK   78  A    between atoms: _174  and  _175
REMARK   79  A    between atoms: _178  and  _180
REMARK   80  A    between atoms: _180  and  _181
REMARK   81  A    between atoms: _183  and  _185
REMARK   82  A    between atoms: _185  and  _186
REMARK   83  A    between atoms: _185  and  _188
REMARK   84  A    between atoms: _188  and  _189
REMARK   85  A    between atoms: _192  and  _194
REMARK   86  A    between atoms: _194  and  _195
REMARK   87  A    between atoms: _197  and  _199
REMARK   88  A    between atoms: _199  and  _200
REMARK   89  A    between atoms: _199  and  _202
REMARK   90  A    between atoms: _202  and  _203
REMARK   91  A    between atoms: _203  and  _204
REMARK   92  A    between atoms: _206  and  _208
REMARK   93  A    between atoms: _208  and  _209
REMARK   94  A    between atoms: _208  and  _211
REMARK   95  A    between atoms: _211  and  _212
REMARK   96  A    between atoms: _215  and  _217
REMARK   97  A    between atoms: _217  and  _218
REMARK   98  A    between atoms: _217  and  _220
REMARK   99  A    between atoms: _220  and  _221
REMARK  100  A    between atoms: _221  and  _222
REMARK  101  A    between atoms: _222  and  _223
REMARK  102  A    between atoms: _223  and  _224
REMARK  103  A    between atoms: _228  and  _230
REMARK  104  A    between atoms: _230  and  _231
REMARK  105  A    between atoms: _234  and  _236
REMARK  106  A    between atoms: _236  and  _237
REMARK  107  A    between atoms: _236  and  _239
REMARK  108  A    between atoms: _239  and  _240
REMARK  109  A    between atoms: _243  and  _245
REMARK  110  A    between atoms: _245  and  _246
REMARK  111  A    between atoms: _245  and  _248
REMARK  112  A    between atoms: _248  and  _249
REMARK  113  A    between atoms: _252  and  _254
REMARK  114  A    between atoms: _254  and  _255
REMARK  115  A    between atoms: _254  and  _257
REMARK  116  A    between atoms: _257  and  _258
REMARK  117  A    between atoms: _261  and  _263
REMARK  118  A    between atoms: _263  and  _264
REMARK  119  A    between atoms: _263  and  _266
REMARK  120  A    between atoms: _266  and  _267
REMARK  121  A    between atoms: _272  and  _274
REMARK  122  A    between atoms: _274  and  _275
REMARK  123  A    between atoms: _274  and  _277
REMARK  124  A    between atoms: _277  and  _278
REMARK  125  A    between atoms: _283  and  _285
REMARK  126  A    between atoms: _285  and  _286
REMARK  127  A    between atoms: _285  and  _288
REMARK  128  A    between atoms: _288  and  _289
REMARK  129  A    between atoms: _292  and  _294
REMARK  130  A    between atoms: _294  and  _295
REMARK  131  A    between atoms: _297  and  _299
REMARK  132  A    between atoms: _299  and  _300
REMARK  133  A    between atoms: _299  and  _302
REMARK  134  A    between atoms: _302  and  _303
REMARK  135  A    between atoms: _306  and  _308
REMARK  136  A    between atoms: _308  and  _309
REMARK  137  A    between atoms: _308  and  _311
REMARK  138  A    between atoms: _311  and  _312
REMARK  139  A    between atoms: _315  and  _317
REMARK  140  A    between atoms: _317  and  _318
REMARK  141  A    between atoms: _321  and  _323
REMARK  142  A    between atoms: _323  and  _324
REMARK  143  A    between atoms: _323  and  _326
REMARK  144  A    between atoms: _326  and  _327
REMARK  145  A    between atoms: _327  and  _328
REMARK  146  A    between atoms: _328  and  _329
REMARK  147  A    between atoms: _329  and  _330
REMARK  148  A    between atoms: _334  and  _336
REMARK  149  A    between atoms: _336  and  _337
REMARK  150  A    between atoms: _339  and  _341
REMARK  151  A    between atoms: _341  and  _342
REMARK  152  A    between atoms: _341  and  _344
REMARK  153  A    between atoms: _344  and  _345
REMARK  154  A    between atoms: _348  and  _350
REMARK  155  A    between atoms: _350  and  _351
REMARK  156  A    between atoms: _353  and  _355
REMARK  157  A    between atoms: _355  and  _356
REMARK  158  A    between atoms: _355  and  _358
REMARK  159  A    between atoms: _358  and  _359
REMARK  160  A    between atoms: _365  and  _367
REMARK  161  A    between atoms: _367  and  _368
REMARK  162  A    between atoms: _370  and  _372
REMARK  163  A    between atoms: _372  and  _373
REMARK  164  A    between atoms: _372  and  _375
REMARK  165  A    between atoms: _378  and  _380
REMARK  166  A    between atoms: _380  and  _381
REMARK  167  A    between atoms: _383  and  _385
REMARK  168  A    between atoms: _385  and  _386
REMARK  169  A    between atoms: _385  and  _388
REMARK  170  A    between atoms: _388  and  _389
REMARK  171  A    between atoms: _395  and  _397
REMARK  172  A    between atoms: _397  and  _398
REMARK  173  A    between atoms: _397  and  _400
REMARK  174  A    between atoms: _400  and  _401
REMARK  175  A    between atoms: _406  and  _407
REMARK  176  A    between atoms: _409  and  _411
REMARK  177  A    between atoms: _411  and  _412
REMARK  178  A    between atoms: _411  and  _414
REMARK  179  A    between atoms: _414  and  _415
REMARK  180  A    between atoms: _420  and  _421
REMARK  181  A    between atoms: _423  and  _425
REMARK  182  A    between atoms: _425  and  _426
REMARK  183  A    between atoms: _425  and  _428
REMARK  184  A    between atoms: _431  and  _433
REMARK  185  A    between atoms: _433  and  _434
REMARK  186  A    between atoms: _433  and  _436
REMARK  187  A    between atoms: _436  and  _437
REMARK  188  A    between atoms: _440  and  _442
REMARK  189  A    between atoms: _442  and  _443
REMARK  190  A    between atoms: _442  and  _445
REMARK  191  A    between atoms: _448  and  _450
REMARK  192  A    between atoms: _450  and  _451
REMARK  193  A    between atoms: _450  and  _453
REMARK  194  A    between atoms: _453  and  _454
REMARK  195  A    between atoms: _457  and  _459
REMARK  196  A    between atoms: _459  and  _460
REMARK  197  A    between atoms: _459  and  _462
REMARK  198  A    between atoms: _462  and  _463
REMARK  199  A    between atoms: _466  and  _468
REMARK  200  A    between atoms: _468  and  _469
REMARK  201  A    between atoms: _468  and  _471
REMARK  202  A    between atoms: _471  and  _472
REMARK  203  A    between atoms: _472  and  _473
REMARK  204  A    between atoms: _473  and  _474
REMARK  205  A    between atoms: _474  and  _475
REMARK  206  A    between atoms: _479  and  _481
REMARK  207  A    between atoms: _481  and  _482
REMARK  208  A    between atoms: _481  and  _484
REMARK  209  A    between atoms: _484  and  _485
REMARK  210  A    between atoms: _490  and  _492
REMARK  211  A    between atoms: _492  and  _493
REMARK  212  A    between atoms: _492  and  _495
REMARK  213  A    between atoms: _495  and  _496
REMARK  214  A    between atoms: _506  and  _508
REMARK  215  A    between atoms: _508  and  _509
REMARK  216  A    between atoms: _508  and  _511
REMARK  217  A    between atoms: _511  and  _512
REMARK  218  A    between atoms: _512  and  _513
REMARK  219  A    between atoms: _516  and  _518
REMARK  220  A    between atoms: _518  and  _519
REMARK  221  A    between atoms: _518  and  _521
REMARK  222  A    between atoms: _521  and  _522
REMARK  223  A    between atoms: _524  and  _526
REMARK  224  A    between atoms: _526  and  _527
REMARK  225  A    between atoms: _526  and  _529
REMARK  226  A    between atoms: _529  and  _530
REMARK  227  A    between atoms: _536  and  _538
REMARK  228  A    between atoms: _538  and  _539
REMARK  229  A    between atoms: _538  and  _541
REMARK  230  A    between atoms: _541  and  _542
REMARK  231  A    between atoms: _545  and  _547
REMARK  232  A    between atoms: _547  and  _548
REMARK  233  A    between atoms: _547  and  _550
REMARK  234  A    between atoms: _553  and  _555
REMARK  235  A    between atoms: _555  and  _556
REMARK  236  A    between atoms: _558  and  _560
REMARK  237  A    between atoms: _560  and  _561
REMARK  238  A    between atoms: _560  and  _563
REMARK  239  A    between atoms: _563  and  _564
REMARK  240  A    between atoms: _567  and  _569
REMARK  241  A    between atoms: _569  and  _570
REMARK  242  A    between atoms: _569  and  _572
REMARK  243  A    between atoms: _572  and  _573
REMARK  244  A    between atoms: _573  and  _574
REMARK  245  A    between atoms: _574  and  _575
REMARK  246  A    between atoms: _575  and  _576
REMARK  247  A    between atoms: _580  and  _582
REMARK  248  A    between atoms: _582  and  _583
REMARK  249  A    between atoms: _582  and  _585
REMARK                            x       y       z     vdW  Elec       q    Type
REMARK                         _______ _______ _______ _____ _____    ______ ____
ROOT
ATOM      1  O   HOH     1      10.704 -11.863 -28.838  0.00  0.00    +0.000 OA
ENDROOT
TORSDOF 0
REMARK  Name = ../refined-set-2016/4o05/4o05_pocket.pdb
REMARK  249 active torsions:
REMARK  status: ('A' for Active; 'I' for Inactive)
REMARK    1  A    between atoms: _1  and  _3
REMARK    2  A    between atoms: _3  and  _4
REMARK    3  A    between atoms: _3  and  _6
REMARK    4  A    between atoms: _6  and  _7
REMARK    5  A    between atoms: _13  and  _15
REMARK    6  A    between atoms: _15  and  _16
REMARK    7  A    between atoms: _15  and  _18
REMARK    8  A    between atoms: _18  and  _19
REMARK    9  A    between atoms: _19  and  _20
REMARK   10  A    between atoms: _25  and  _27
REMARK   11  A    between atoms: _27  and  _28
REMARK   12  A    between atoms: _27  and  _30
REMARK   13  A    between atoms: _30  and  _31
REMARK   14  A    between atoms: _34  and  _36
REMARK   15  A    between atoms: _36  and  _37
REMARK   16  A    between atoms: _36  and  _39
REMARK   17  A    between atoms: _39  and  _40
REMARK   18  A    between atoms: _40  and  _41
REMARK   19  A    between atoms: _44  and  _46
REMARK   20  A    between atoms: _46  and  _47
REMARK   21  A    between atoms: _46  and  _49
REMARK   22  A    between atoms: _49  and  _50
REMARK   23  A    between atoms: _53  and  _55
REMARK   24  A    between atoms: _55  and  _56
REMARK   25  A    between atoms: _55  and  _58
REMARK   26  A    between atoms: _58  and  _59
REMARK   27  A    between atoms: _62  and  _64
REMARK   28  A    between atoms: _64  and  _65
REMARK   29  A    between atoms: _64  and  _67
REMARK   30  A    between atoms: _67  and  _68
REMARK   31  A    between atoms: _70  and  _72
REMARK   32  A    between atoms: _72  and  _73
REMARK   33  A    between atoms: _72  and  _75
REMARK   34  A    between atoms: _75  and  _76
REMARK   35  A    between atoms: _81  and  _83
REMARK   36  A    between atoms: _83  and  _84
REMARK   37  A    between atoms: _83  and  _86
REMARK   38  A    between atoms: _86  and  _87
REMARK   39  A    between atoms: _89  and  _91
REMARK   40  A    between atoms: _91  and  _92
REMARK   41  A    between atoms: _91  and  _94
REMARK   42  A    between atoms: _94  and  _95
REMARK   43  A    between atoms: _97  and  _99
REMARK   44  A    between atoms: _99  and  _100
REMARK   45  A    between atoms: _99  and  _102
REMARK   46  A    between atoms: _102  and  _103
REMARK   47  A    between atoms: _106  and  _108
REMARK   48  A    between atoms: _108  and  _109
REMARK   49  A    between atoms: _112  and  _114
REMARK   50  A    between atoms: _114  and  _115
REMARK   51  A    between atoms: _114  and  _117
REMARK   52  A    between atoms: _117  and  _118
REMARK   53  A    between atoms: _121  and  _123
REMARK   54  A    between atoms: _123  and  _124
REMARK   55  A    between atoms: _123  and  _126
REMARK   56  A    between atoms: _126  and  _127
REMARK   57  A    between atoms: _127  and  _128
REMARK   58  A    between atoms: _128  and  _129
REMARK   59  A    between atoms: _129  and  _130
REMARK   60  A    between atoms: _134  and  _136
REMARK   61  A    between atoms: _136  and  _137
REMARK   62  A    between atoms: _136  and  _139
REMARK   63  A    between atoms: _139  and  _140
REMARK   64  A    between atoms: _143  and  _145
REMARK   65  A    between atoms: _145  and  _146
REMARK   66  A    between atoms: _145  and  _148
REMARK   67  A    between atoms: _148  and  _149
REMARK   68  A    between atoms: _152  and  _154
REMARK   69  A    between atoms: _154  and  _155
REMARK   70  A    between atoms: _154  and  _157
REMARK   71  A    between atoms: _160  and  _162
REMARK   72  A    between atoms: _162  and  _163
REMARK   73  A    between atoms: _162  and  _165
REMARK   74  A    between atoms: _165  and  _166
REMARK   75  A    between atoms: _169  and  _171
REMARK   76  A    between atoms: _171  and  _172
REMARK   77  A    between atoms: _171  and  _174
REMARK   78  A    between atoms: _174  and  _175
REMARK   79  A    between atoms: _178  and  _180
REMARK   80  A    between atoms: _180  and  _181
REMARK   81  A    between atoms: _183  and  _185
REMARK   82  A    between atoms: _185  and  _186
REMARK   83  A    between atoms: _185  and  _188
REMARK   84  A    between atoms: _188  and  _189
REMARK   85  A    between atoms: _192  and  _194
REMARK   86  A    between atoms: _194  and  _195
REMARK   87  A    between atoms: _197  and  _199
REMARK   88  A    between atoms: _199  and  _200
REMARK   89  A    between atoms: _199  and  _202
REMARK   90  A    between atoms: _202  and  _203
REMARK   91  A    between atoms: _203  and  _204
REMARK   92  A    between atoms: _206  and  _208
REMARK   93  A    between atoms: _208  and  _209
REMARK   94  A    between atoms: _208  and  _211
REMARK   95  A    between atoms: _211  and  _212
REMARK   96  A    between atoms: _215  and  _217
REMARK   97  A    between atoms: _217  and  _218
REMARK   98  A    between atoms: _217  and  _220
REMARK   99  A    between atoms: _220  and  _221
REMARK  100  A    between atoms: _221  and  _222
REMARK  101  A    between atoms: _222  and  _223
REMARK  102  A    between atoms: _223  and  _224
REMARK  103  A    between atoms: _228  and  _230
REMARK  104  A    between atoms: _230  and  _231
REMARK  105  A    between atoms: _234  and  _236
REMARK  106  A    between atoms: _236  and  _237
REMARK  107  A    between atoms: _236  and  _239
REMARK  108  A    between atoms: _239  and  _240
REMARK  109  A    between atoms: _243  and  _245
REMARK  110  A    between atoms: _245  and  _246
REMARK  111  A    between atoms: _245  and  _248
REMARK  112  A    between atoms: _248  and  _249
REMARK  113  A    between atoms: _252  and  _254
REMARK  114  A    between atoms: _254  and  _255
REMARK  115  A    between atoms: _254  and  _257
REMARK  116  A    between atoms: _257  and  _258
REMARK  117  A    between atoms: _261  and  _263
REMARK  118  A    between atoms: _263  and  _264
REMARK  119  A    between atoms: _263  and  _266
REMARK  120  A    between atoms: _266  and  _267
REMARK  121  A    between atoms: _272  and  _274
REMARK  122  A    between atoms: _274  and  _275
REMARK  123  A    between atoms: _274  and  _277
REMARK  124  A    between atoms: _277  and  _278
REMARK  125  A    between atoms: _283  and  _285
REMARK  126  A    between atoms: _285  and  _286
REMARK  127  A    between atoms: _285  and  _288
REMARK  128  A    between atoms: _288  and  _289
REMARK  129  A    between atoms: _292  and  _294
REMARK  130  A    between atoms: _294  and  _295
REMARK  131  A    between atoms: _297  and  _299
REMARK  132  A    between atoms: _299  and  _300
REMARK  133  A    between atoms: _299  and  _302
REMARK  134  A    between atoms: _302  and  _303
REMARK  135  A    between atoms: _306  and  _308
REMARK  136  A    between atoms: _308  and  _309
REMARK  137  A    between atoms: _308  and  _311
REMARK  138  A    between atoms: _311  and  _312
REMARK  139  A    between atoms: _315  and  _317
REMARK  140  A    between atoms: _317  and  _318
REMARK  141  A    between atoms: _321  and  _323
REMARK  142  A    between atoms: _323  and  _324
REMARK  143  A    between atoms: _323  and  _326
REMARK  144  A    between atoms: _326  and  _327
REMARK  145  A    between atoms: _327  and  _328
REMARK  146  A    between atoms: _328  and  _329
REMARK  147  A    between atoms: _329  and  _330
REMARK  148  A    between atoms: _334  and  _336
REMARK  149  A    between atoms: _336  and  _337
REMARK  150  A    between atoms: _339  and  _341
REMARK  151  A    between atoms: _341  and  _342
REMARK  152  A    between atoms: _341  and  _344
REMARK  153  A    between atoms: _344  and  _345
REMARK  154  A    between atoms: _348  and  _350
REMARK  155  A    between atoms: _350  and  _351
REMARK  156  A    between atoms: _353  and  _355
REMARK  157  A    between atoms: _355  and  _356
REMARK  158  A    between atoms: _355  and  _358
REMARK  159  A    between atoms: _358  and  _359
REMARK  160  A    between atoms: _365  and  _367
REMARK  161  A    between atoms: _367  and  _368
REMARK  162  A    between atoms: _370  and  _372
REMARK  163  A    between atoms: _372  and  _373
REMARK  164  A    between atoms: _372  and  _375
REMARK  165  A    between atoms: _378  and  _380
REMARK  166  A    between atoms: _380  and  _381
REMARK  167  A    between atoms: _383  and  _385
REMARK  168  A    between atoms: _385  and  _386
REMARK  169  A    between atoms: _385  and  _388
REMARK  170  A    between atoms: _388  and  _389
REMARK  171  A    between atoms: _395  and  _397
REMARK  172  A    between atoms: _397  and  _398
REMARK  173  A    between atoms: _397  and  _400
REMARK  174  A    between atoms: _400  and  _401
REMARK  175  A    between atoms: _406  and  _407
REMARK  176  A    between atoms: _409  and  _411
REMARK  177  A    between atoms: _411  and  _412
REMARK  178  A    between atoms: _411  and  _414
REMARK  179  A    between atoms: _414  and  _415
REMARK  180  A    between atoms: _420  and  _421
REMARK  181  A    between atoms: _423  and  _425
REMARK  182  A    between atoms: _425  and  _426
REMARK  183  A    between atoms: _425  and  _428
REMARK  184  A    between atoms: _431  and  _433
REMARK  185  A    between atoms: _433  and  _434
REMARK  186  A    between atoms: _433  and  _436
REMARK  187  A    between atoms: _436  and  _437
REMARK  188  A    between atoms: _440  and  _442
REMARK  189  A    between atoms: _442  and  _443
REMARK  190  A    between atoms: _442  and  _445
REMARK  191  A    between atoms: _448  and  _450
REMARK  192  A    between atoms: _450  and  _451
REMARK  193  A    between atoms: _450  and  _453
REMARK  194  A    between atoms: _453  and  _454
REMARK  195  A    between atoms: _457  and  _459
REMARK  196  A    between atoms: _459  and  _460
REMARK  197  A    between atoms: _459  and  _462
REMARK  198  A    between atoms: _462  and  _463
REMARK  199  A    between atoms: _466  and  _468
REMARK  200  A    between atoms: _468  and  _469
REMARK  201  A    between atoms: _468  and  _471
REMARK  202  A    between atoms: _471  and  _472
REMARK  203  A    between atoms: _472  and  _473
REMARK  204  A    between atoms: _473  and  _474
REMARK  205  A    between atoms: _474  and  _475
REMARK  206  A    between atoms: _479  and  _481
REMARK  207  A    between atoms: _481  and  _482
REMARK  208  A    between atoms: _481  and  _484
REMARK  209  A    between atoms: _484  and  _485
REMARK  210  A    between atoms: _490  and  _492
REMARK  211  A    between atoms: _492  and  _493
REMARK  212  A    between atoms: _492  and  _495
REMARK  213  A    between atoms: _495  and  _496
REMARK  214  A    between atoms: _506  and  _508
REMARK  215  A    between atoms: _508  and  _509
REMARK  216  A    between atoms: _508  and  _511
REMARK  217  A    between atoms: _511  and  _512
REMARK  218  A    between atoms: _512  and  _513
REMARK  219  A    between atoms: _516  and  _518
REMARK  220  A    between atoms: _518  and  _519
REMARK  221  A    between atoms: _518  and  _521
REMARK  222  A    between atoms: _521  and  _522
REMARK  223  A    between atoms: _524  and  _526
REMARK  224  A    between atoms: _526  and  _527
REMARK  225  A    between atoms: _526  and  _529
REMARK  226  A    between atoms: _529  and  _530
REMARK  227  A    between atoms: _536  and  _538
REMARK  228  A    between atoms: _538  and  _539
REMARK  229  A    between atoms: _538  and  _541
REMARK  230  A    between atoms: _541  and  _542
REMARK  231  A    between atoms: _545  and  _547
REMARK  232  A    between atoms: _547  and  _548
REMARK  233  A    between atoms: _547  and  _550
REMARK  234  A    between atoms: _553  and  _555
REMARK  235  A    between atoms: _555  and  _556
REMARK  236  A    between atoms: _558  and  _560
REMARK  237  A    between atoms: _560  and  _561
REMARK  238  A    between atoms: _560  and  _563
REMARK  239  A    between atoms: _563  and  _564
REMARK  240  A    between atoms: _567  and  _569
REMARK  241  A    between atoms: _569  and  _570
REMARK  242  A    between atoms: _569  and  _572
REMARK  243  A    between atoms: _572  and  _573
REMARK  244  A    between atoms: _573  and  _574
REMARK  245  A    between atoms: _574  and  _575
REMARK  246  A    between atoms: _575  and  _576
REMARK  247  A    between atoms: _580  and  _582
REMARK  248  A    between atoms: _582  and  _583
REMARK  249  A    between atoms: _582  and  _585
REMARK                            x       y       z     vdW  Elec       q    Type
REMARK                         _______ _______ _______ _____ _____    ______ ____
ROOT
ATOM      1  O   HOH     1       3.462  -4.322 -19.041  0.00  0.00    +0.000 OA
ENDROOT
TORSDOF 0
REMARK  Name = ../refined-set-2016/4o05/4o05_pocket.pdb
REMARK  249 active torsions:
REMARK  status: ('A' for Active; 'I' for Inactive)
REMARK    1  A    between atoms: _1  and  _3
REMARK    2  A    between atoms: _3  and  _4
REMARK    3  A    between atoms: _3  and  _6
REMARK    4  A    between atoms: _6  and  _7
REMARK    5  A    between atoms: _13  and  _15
REMARK    6  A    between atoms: _15  and  _16
REMARK    7  A    between atoms: _15  and  _18
REMARK    8  A    between atoms: _18  and  _19
REMARK    9  A    between atoms: _19  and  _20
REMARK   10  A    between atoms: _25  and  _27
REMARK   11  A    between atoms: _27  and  _28
REMARK   12  A    between atoms: _27  and  _30
REMARK   13  A    between atoms: _30  and  _31
REMARK   14  A    between atoms: _34  and  _36
REMARK   15  A    between atoms: _36  and  _37
REMARK   16  A    between atoms: _36  and  _39
REMARK   17  A    between atoms: _39  and  _40
REMARK   18  A    between atoms: _40  and  _41
REMARK   19  A    between atoms: _44  and  _46
REMARK   20  A    between atoms: _46  and  _47
REMARK   21  A    between atoms: _46  and  _49
REMARK   22  A    between atoms: _49  and  _50
REMARK   23  A    between atoms: _53  and  _55
REMARK   24  A    between atoms: _55  and  _56
REMARK   25  A    between atoms: _55  and  _58
REMARK   26  A    between atoms: _58  and  _59
REMARK   27  A    between atoms: _62  and  _64
REMARK   28  A    between atoms: _64  and  _65
REMARK   29  A    between atoms: _64  and  _67
REMARK   30  A    between atoms: _67  and  _68
REMARK   31  A    between atoms: _70  and  _72
REMARK   32  A    between atoms: _72  and  _73
REMARK   33  A    between atoms: _72  and  _75
REMARK   34  A    between atoms: _75  and  _76
REMARK   35  A    between atoms: _81  and  _83
REMARK   36  A    between atoms: _83  and  _84
REMARK   37  A    between atoms: _83  and  _86
REMARK   38  A    between atoms: _86  and  _87
REMARK   39  A    between atoms: _89  and  _91
REMARK   40  A    between atoms: _91  and  _92
REMARK   41  A    between atoms: _91  and  _94
REMARK   42  A    between atoms: _94  and  _95
REMARK   43  A    between atoms: _97  and  _99
REMARK   44  A    between atoms: _99  and  _100
REMARK   45  A    between atoms: _99  and  _102
REMARK   46  A    between atoms: _102  and  _103
REMARK   47  A    between atoms: _106  and  _108
REMARK   48  A    between atoms: _108  and  _109
REMARK   49  A    between atoms: _112  and  _114
REMARK   50  A    between atoms: _114  and  _115
REMARK   51  A    between atoms: _114  and  _117
REMARK   52  A    between atoms: _117  and  _118
REMARK   53  A    between atoms: _121  and  _123
REMARK   54  A    between atoms: _123  and  _124
REMARK   55  A    between atoms: _123  and  _126
REMARK   56  A    between atoms: _126  and  _127
REMARK   57  A    between atoms: _127  and  _128
REMARK   58  A    between atoms: _128  and  _129
REMARK   59  A    between atoms: _129  and  _130
REMARK   60  A    between atoms: _134  and  _136
REMARK   61  A    between atoms: _136  and  _137
REMARK   62  A    between atoms: _136  and  _139
REMARK   63  A    between atoms: _139  and  _140
REMARK   64  A    between atoms: _143  and  _145
REMARK   65  A    between atoms: _145  and  _146
REMARK   66  A    between atoms: _145  and  _148
REMARK   67  A    between atoms: _148  and  _149
REMARK   68  A    between atoms: _152  and  _154
REMARK   69  A    between atoms: _154  and  _155
REMARK   70  A    between atoms: _154  and  _157
REMARK   71  A    between atoms: _160  and  _162
REMARK   72  A    between atoms: _162  and  _163
REMARK   73  A    between atoms: _162  and  _165
REMARK   74  A    between atoms: _165  and  _166
REMARK   75  A    between atoms: _169  and  _171
REMARK   76  A    between atoms: _171  and  _172
REMARK   77  A    between atoms: _171  and  _174
REMARK   78  A    between atoms: _174  and  _175
REMARK   79  A    between atoms: _178  and  _180
REMARK   80  A    between atoms: _180  and  _181
REMARK   81  A    between atoms: _183  and  _185
REMARK   82  A    between atoms: _185  and  _186
REMARK   83  A    between atoms: _185  and  _188
REMARK   84  A    between atoms: _188  and  _189
REMARK   85  A    between atoms: _192  and  _194
REMARK   86  A    between atoms: _194  and  _195
REMARK   87  A    between atoms: _197  and  _199
REMARK   88  A    between atoms: _199  and  _200
REMARK   89  A    between atoms: _199  and  _202
REMARK   90  A    between atoms: _202  and  _203
REMARK   91  A    between atoms: _203  and  _204
REMARK   92  A    between atoms: _206  and  _208
REMARK   93  A    between atoms: _208  and  _209
REMARK   94  A    between atoms: _208  and  _211
REMARK   95  A    between atoms: _211  and  _212
REMARK   96  A    between atoms: _215  and  _217
REMARK   97  A    between atoms: _217  and  _218
REMARK   98  A    between atoms: _217  and  _220
REMARK   99  A    between atoms: _220  and  _221
REMARK  100  A    between atoms: _221  and  _222
REMARK  101  A    between atoms: _222  and  _223
REMARK  102  A    between atoms: _223  and  _224
REMARK  103  A    between atoms: _228  and  _230
REMARK  104  A    between atoms: _230  and  _231
REMARK  105  A    between atoms: _234  and  _236
REMARK  106  A    between atoms: _236  and  _237
REMARK  107  A    between atoms: _236  and  _239
REMARK  108  A    between atoms: _239  and  _240
REMARK  109  A    between atoms: _243  and  _245
REMARK  110  A    between atoms: _245  and  _246
REMARK  111  A    between atoms: _245  and  _248
REMARK  112  A    between atoms: _248  and  _249
REMARK  113  A    between atoms: _252  and  _254
REMARK  114  A    between atoms: _254  and  _255
REMARK  115  A    between atoms: _254  and  _257
REMARK  116  A    between atoms: _257  and  _258
REMARK  117  A    between atoms: _261  and  _263
REMARK  118  A    between atoms: _263  and  _264
REMARK  119  A    between atoms: _263  and  _266
REMARK  120  A    between atoms: _266  and  _267
REMARK  121  A    between atoms: _272  and  _274
REMARK  122  A    between atoms: _274  and  _275
REMARK  123  A    between atoms: _274  and  _277
REMARK  124  A    between atoms: _277  and  _278
REMARK  125  A    between atoms: _283  and  _285
REMARK  126  A    between atoms: _285  and  _286
REMARK  127  A    between atoms: _285  and  _288
REMARK  128  A    between atoms: _288  and  _289
REMARK  129  A    between atoms: _292  and  _294
REMARK  130  A    between atoms: _294  and  _295
REMARK  131  A    between atoms: _297  and  _299
REMARK  132  A    between atoms: _299  and  _300
REMARK  133  A    between atoms: _299  and  _302
REMARK  134  A    between atoms: _302  and  _303
REMARK  135  A    between atoms: _306  and  _308
REMARK  136  A    between atoms: _308  and  _309
REMARK  137  A    between atoms: _308  and  _311
REMARK  138  A    between atoms: _311  and  _312
REMARK  139  A    between atoms: _315  and  _317
REMARK  140  A    between atoms: _317  and  _318
REMARK  141  A    between atoms: _321  and  _323
REMARK  142  A    between atoms: _323  and  _324
REMARK  143  A    between atoms: _323  and  _326
REMARK  144  A    between atoms: _326  and  _327
REMARK  145  A    between atoms: _327  and  _328
REMARK  146  A    between atoms: _328  and  _329
REMARK  147  A    between atoms: _329  and  _330
REMARK  148  A    between atoms: _334  and  _336
REMARK  149  A    between atoms: _336  and  _337
REMARK  150  A    between atoms: _339  and  _341
REMARK  151  A    between atoms: _341  and  _342
REMARK  152  A    between atoms: _341  and  _344
REMARK  153  A    between atoms: _344  and  _345
REMARK  154  A    between atoms: _348  and  _350
REMARK  155  A    between atoms: _350  and  _351
REMARK  156  A    between atoms: _353  and  _355
REMARK  157  A    between atoms: _355  and  _356
REMARK  158  A    between atoms: _355  and  _358
REMARK  159  A    between atoms: _358  and  _359
REMARK  160  A    between atoms: _365  and  _367
REMARK  161  A    between atoms: _367  and  _368
REMARK  162  A    between atoms: _370  and  _372
REMARK  163  A    between atoms: _372  and  _373
REMARK  164  A    between atoms: _372  and  _375
REMARK  165  A    between atoms: _378  and  _380
REMARK  166  A    between atoms: _380  and  _381
REMARK  167  A    between atoms: _383  and  _385
REMARK  168  A    between atoms: _385  and  _386
REMARK  169  A    between atoms: _385  and  _388
REMARK  170  A    between atoms: _388  and  _389
REMARK  171  A    between atoms: _395  and  _397
REMARK  172  A    between atoms: _397  and  _398
REMARK  173  A    between atoms: _397  and  _400
REMARK  174  A    between atoms: _400  and  _401
REMARK  175  A    between atoms: _406  and  _407
REMARK  176  A    between atoms: _409  and  _411
REMARK  177  A    between atoms: _411  and  _412
REMARK  178  A    between atoms: _411  and  _414
REMARK  179  A    between atoms: _414  and  _415
REMARK  180  A    between atoms: _420  and  _421
REMARK  181  A    between atoms: _423  and  _425
REMARK  182  A    between atoms: _425  and  _426
REMARK  183  A    between atoms: _425  and  _428
REMARK  184  A    between atoms: _431  and  _433
REMARK  185  A    between atoms: _433  and  _434
REMARK  186  A    between atoms: _433  and  _436
REMARK  187  A    between atoms: _436  and  _437
REMARK  188  A    between atoms: _440  and  _442
REMARK  189  A    between atoms: _442  and  _443
REMARK  190  A    between atoms: _442  and  _445
REMARK  191  A    between atoms: _448  and  _450
REMARK  192  A    between atoms: _450  and  _451
REMARK  193  A    between atoms: _450  and  _453
REMARK  194  A    between atoms: _453  and  _454
REMARK  195  A    between atoms: _457  and  _459
REMARK  196  A    between atoms: _459  and  _460
REMARK  197  A    between atoms: _459  and  _462
REMARK  198  A    between atoms: _462  and  _463
REMARK  199  A    between atoms: _466  and  _468
REMARK  200  A    between atoms: _468  and  _469
REMARK  201  A    between atoms: _468  and  _471
REMARK  202  A    between atoms: _471  and  _472
REMARK  203  A    between atoms: _472  and  _473
REMARK  204  A    between atoms: _473  and  _474
REMARK  205  A    between atoms: _474  and  _475
REMARK  206  A    between atoms: _479  and  _481
REMARK  207  A    between atoms: _481  and  _482
REMARK  208  A    between atoms: _481  and  _484
REMARK  209  A    between atoms: _484  and  _485
REMARK  210  A    between atoms: _490  and  _492
REMARK  211  A    between atoms: _492  and  _493
REMARK  212  A    between atoms: _492  and  _495
REMARK  213  A    between atoms: _495  and  _496
REMARK  214  A    between atoms: _506  and  _508
REMARK  215  A    between atoms: _508  and  _509
REMARK  216  A    between atoms: _508  and  _511
REMARK  217  A    between atoms: _511  and  _512
REMARK  218  A    between atoms: _512  and  _513
REMARK  219  A    between atoms: _516  and  _518
REMARK  220  A    between atoms: _518  and  _519
REMARK  221  A    between atoms: _518  and  _521
REMARK  222  A    between atoms: _521  and  _522
REMARK  223  A    between atoms: _524  and  _526
REMARK  224  A    between atoms: _526  and  _527
REMARK  225  A    between atoms: _526  and  _529
REMARK  226  A    between atoms: _529  and  _530
REMARK  227  A    between atoms: _536  and  _538
REMARK  228  A    between atoms: _538  and  _539
REMARK  229  A    between atoms: _538  and  _541
REMARK  230  A    between atoms: _541  and  _542
REMARK  231  A    between atoms: _545  and  _547
REMARK  232  A    between atoms: _547  and  _548
REMARK  233  A    between atoms: _547  and  _550
REMARK  234  A    between atoms: _553  and  _555
REMARK  235  A    between atoms: _555  and  _556
REMARK  236  A    between atoms: _558  and  _560
REMARK  237  A    between atoms: _560  and  _561
REMARK  238  A    between atoms: _560  and  _563
REMARK  239  A    between atoms: _563  and  _564
REMARK  240  A    between atoms: _567  and  _569
REMARK  241  A    between atoms: _569  and  _570
REMARK  242  A    between atoms: _569  and  _572
REMARK  243  A    between atoms: _572  and  _573
REMARK  244  A    between atoms: _573  and  _574
REMARK  245  A    between atoms: _574  and  _575
REMARK  246  A    between atoms: _575  and  _576
REMARK  247  A    between atoms: _580  and  _582
REMARK  248  A    between atoms: _582  and  _583
REMARK  249  A    between atoms: _582  and  _585
REMARK                            x       y       z     vdW  Elec       q    Type
REMARK                         _______ _______ _______ _____ _____    ______ ____
ROOT
ATOM      1  O   HOH     1       2.155  -7.933 -16.960  0.00  0.00    +0.000 OA
ENDROOT
TORSDOF 0
REMARK  Name = ../refined-set-2016/4o05/4o05_pocket.pdb
REMARK  249 active torsions:
REMARK  status: ('A' for Active; 'I' for Inactive)
REMARK    1  A    between atoms: _1  and  _3
REMARK    2  A    between atoms: _3  and  _4
REMARK    3  A    between atoms: _3  and  _6
REMARK    4  A    between atoms: _6  and  _7
REMARK    5  A    between atoms: _13  and  _15
REMARK    6  A    between atoms: _15  and  _16
REMARK    7  A    between atoms: _15  and  _18
REMARK    8  A    between atoms: _18  and  _19
REMARK    9  A    between atoms: _19  and  _20
REMARK   10  A    between atoms: _25  and  _27
REMARK   11  A    between atoms: _27  and  _28
REMARK   12  A    between atoms: _27  and  _30
REMARK   13  A    between atoms: _30  and  _31
REMARK   14  A    between atoms: _34  and  _36
REMARK   15  A    between atoms: _36  and  _37
REMARK   16  A    between atoms: _36  and  _39
REMARK   17  A    between atoms: _39  and  _40
REMARK   18  A    between atoms: _40  and  _41
REMARK   19  A    between atoms: _44  and  _46
REMARK   20  A    between atoms: _46  and  _47
REMARK   21  A    between atoms: _46  and  _49
REMARK   22  A    between atoms: _49  and  _50
REMARK   23  A    between atoms: _53  and  _55
REMARK   24  A    between atoms: _55  and  _56
REMARK   25  A    between atoms: _55  and  _58
REMARK   26  A    between atoms: _58  and  _59
REMARK   27  A    between atoms: _62  and  _64
REMARK   28  A    between atoms: _64  and  _65
REMARK   29  A    between atoms: _64  and  _67
REMARK   30  A    between atoms: _67  and  _68
REMARK   31  A    between atoms: _70  and  _72
REMARK   32  A    between atoms: _72  and  _73
REMARK   33  A    between atoms: _72  and  _75
REMARK   34  A    between atoms: _75  and  _76
REMARK   35  A    between atoms: _81  and  _83
REMARK   36  A    between atoms: _83  and  _84
REMARK   37  A    between atoms: _83  and  _86
REMARK   38  A    between atoms: _86  and  _87
REMARK   39  A    between atoms: _89  and  _91
REMARK   40  A    between atoms: _91  and  _92
REMARK   41  A    between atoms: _91  and  _94
REMARK   42  A    between atoms: _94  and  _95
REMARK   43  A    between atoms: _97  and  _99
REMARK   44  A    between atoms: _99  and  _100
REMARK   45  A    between atoms: _99  and  _102
REMARK   46  A    between atoms: _102  and  _103
REMARK   47  A    between atoms: _106  and  _108
REMARK   48  A    between atoms: _108  and  _109
REMARK   49  A    between atoms: _112  and  _114
REMARK   50  A    between atoms: _114  and  _115
REMARK   51  A    between atoms: _114  and  _117
REMARK   52  A    between atoms: _117  and  _118
REMARK   53  A    between atoms: _121  and  _123
REMARK   54  A    between atoms: _123  and  _124
REMARK   55  A    between atoms: _123  and  _126
REMARK   56  A    between atoms: _126  and  _127
REMARK   57  A    between atoms: _127  and  _128
REMARK   58  A    between atoms: _128  and  _129
REMARK   59  A    between atoms: _129  and  _130
REMARK   60  A    between atoms: _134  and  _136
REMARK   61  A    between atoms: _136  and  _137
REMARK   62  A    between atoms: _136  and  _139
REMARK   63  A    between atoms: _139  and  _140
REMARK   64  A    between atoms: _143  and  _145
REMARK   65  A    between atoms: _145  and  _146
REMARK   66  A    between atoms: _145  and  _148
REMARK   67  A    between atoms: _148  and  _149
REMARK   68  A    between atoms: _152  and  _154
REMARK   69  A    between atoms: _154  and  _155
REMARK   70  A    between atoms: _154  and  _157
REMARK   71  A    between atoms: _160  and  _162
REMARK   72  A    between atoms: _162  and  _163
REMARK   73  A    between atoms: _162  and  _165
REMARK   74  A    between atoms: _165  and  _166
REMARK   75  A    between atoms: _169  and  _171
REMARK   76  A    between atoms: _171  and  _172
REMARK   77  A    between atoms: _171  and  _174
REMARK   78  A    between atoms: _174  and  _175
REMARK   79  A    between atoms: _178  and  _180
REMARK   80  A    between atoms: _180  and  _181
REMARK   81  A    between atoms: _183  and  _185
REMARK   82  A    between atoms: _185  and  _186
REMARK   83  A    between atoms: _185  and  _188
REMARK   84  A    between atoms: _188  and  _189
REMARK   85  A    between atoms: _192  and  _194
REMARK   86  A    between atoms: _194  and  _195
REMARK   87  A    between atoms: _197  and  _199
REMARK   88  A    between atoms: _199  and  _200
REMARK   89  A    between atoms: _199  and  _202
REMARK   90  A    between atoms: _202  and  _203
REMARK   91  A    between atoms: _203  and  _204
REMARK   92  A    between atoms: _206  and  _208
REMARK   93  A    between atoms: _208  and  _209
REMARK   94  A    between atoms: _208  and  _211
REMARK   95  A    between atoms: _211  and  _212
REMARK   96  A    between atoms: _215  and  _217
REMARK   97  A    between atoms: _217  and  _218
REMARK   98  A    between atoms: _217  and  _220
REMARK   99  A    between atoms: _220  and  _221
REMARK  100  A    between atoms: _221  and  _222
REMARK  101  A    between atoms: _222  and  _223
REMARK  102  A    between atoms: _223  and  _224
REMARK  103  A    between atoms: _228  and  _230
REMARK  104  A    between atoms: _230  and  _231
REMARK  105  A    between atoms: _234  and  _236
REMARK  106  A    between atoms: _236  and  _237
REMARK  107  A    between atoms: _236  and  _239
REMARK  108  A    between atoms: _239  and  _240
REMARK  109  A    between atoms: _243  and  _245
REMARK  110  A    between atoms: _245  and  _246
REMARK  111  A    between atoms: _245  and  _248
REMARK  112  A    between atoms: _248  and  _249
REMARK  113  A    between atoms: _252  and  _254
REMARK  114  A    between atoms: _254  and  _255
REMARK  115  A    between atoms: _254  and  _257
REMARK  116  A    between atoms: _257  and  _258
REMARK  117  A    between atoms: _261  and  _263
REMARK  118  A    between atoms: _263  and  _264
REMARK  119  A    between atoms: _263  and  _266
REMARK  120  A    between atoms: _266  and  _267
REMARK  121  A    between atoms: _272  and  _274
REMARK  122  A    between atoms: _274  and  _275
REMARK  123  A    between atoms: _274  and  _277
REMARK  124  A    between atoms: _277  and  _278
REMARK  125  A    between atoms: _283  and  _285
REMARK  126  A    between atoms: _285  and  _286
REMARK  127  A    between atoms: _285  and  _288
REMARK  128  A    between atoms: _288  and  _289
REMARK  129  A    between atoms: _292  and  _294
REMARK  130  A    between atoms: _294  and  _295
REMARK  131  A    between atoms: _297  and  _299
REMARK  132  A    between atoms: _299  and  _300
REMARK  133  A    between atoms: _299  and  _302
REMARK  134  A    between atoms: _302  and  _303
REMARK  135  A    between atoms: _306  and  _308
REMARK  136  A    between atoms: _308  and  _309
REMARK  137  A    between atoms: _308  and  _311
REMARK  138  A    between atoms: _311  and  _312
REMARK  139  A    between atoms: _315  and  _317
REMARK  140  A    between atoms: _317  and  _318
REMARK  141  A    between atoms: _321  and  _323
REMARK  142  A    between atoms: _323  and  _324
REMARK  143  A    between atoms: _323  and  _326
REMARK  144  A    between atoms: _326  and  _327
REMARK  145  A    between atoms: _327  and  _328
REMARK  146  A    between atoms: _328  and  _329
REMARK  147  A    between atoms: _329  and  _330
REMARK  148  A    between atoms: _334  and  _336
REMARK  149  A    between atoms: _336  and  _337
REMARK  150  A    between atoms: _339  and  _341
REMARK  151  A    between atoms: _341  and  _342
REMARK  152  A    between atoms: _341  and  _344
REMARK  153  A    between atoms: _344  and  _345
REMARK  154  A    between atoms: _348  and  _350
REMARK  155  A    between atoms: _350  and  _351
REMARK  156  A    between atoms: _353  and  _355
REMARK  157  A    between atoms: _355  and  _356
REMARK  158  A    between atoms: _355  and  _358
REMARK  159  A    between atoms: _358  and  _359
REMARK  160  A    between atoms: _365  and  _367
REMARK  161  A    between atoms: _367  and  _368
REMARK  162  A    between atoms: _370  and  _372
REMARK  163  A    between atoms: _372  and  _373
REMARK  164  A    between atoms: _372  and  _375
REMARK  165  A    between atoms: _378  and  _380
REMARK  166  A    between atoms: _380  and  _381
REMARK  167  A    between atoms: _383  and  _385
REMARK  168  A    between atoms: _385  and  _386
REMARK  169  A    between atoms: _385  and  _388
REMARK  170  A    between atoms: _388  and  _389
REMARK  171  A    between atoms: _395  and  _397
REMARK  172  A    between atoms: _397  and  _398
REMARK  173  A    between atoms: _397  and  _400
REMARK  174  A    between atoms: _400  and  _401
REMARK  175  A    between atoms: _406  and  _407
REMARK  176  A    between atoms: _409  and  _411
REMARK  177  A    between atoms: _411  and  _412
REMARK  178  A    between atoms: _411  and  _414
REMARK  179  A    between atoms: _414  and  _415
REMARK  180  A    between atoms: _420  and  _421
REMARK  181  A    between atoms: _423  and  _425
REMARK  182  A    between atoms: _425  and  _426
REMARK  183  A    between atoms: _425  and  _428
REMARK  184  A    between atoms: _431  and  _433
REMARK  185  A    between atoms: _433  and  _434
REMARK  186  A    between atoms: _433  and  _436
REMARK  187  A    between atoms: _436  and  _437
REMARK  188  A    between atoms: _440  and  _442
REMARK  189  A    between atoms: _442  and  _443
REMARK  190  A    between atoms: _442  and  _445
REMARK  191  A    between atoms: _448  and  _450
REMARK  192  A    between atoms: _450  and  _451
REMARK  193  A    between atoms: _450  and  _453
REMARK  194  A    between atoms: _453  and  _454
REMARK  195  A    between atoms: _457  and  _459
REMARK  196  A    between atoms: _459  and  _460
REMARK  197  A    between atoms: _459  and  _462
REMARK  198  A    between atoms: _462  and  _463
REMARK  199  A    between atoms: _466  and  _468
REMARK  200  A    between atoms: _468  and  _469
REMARK  201  A    between atoms: _468  and  _471
REMARK  202  A    between atoms: _471  and  _472
REMARK  203  A    between atoms: _472  and  _473
REMARK  204  A    between atoms: _473  and  _474
REMARK  205  A    between atoms: _474  and  _475
REMARK  206  A    between atoms: _479  and  _481
REMARK  207  A    between atoms: _481  and  _482
REMARK  208  A    between atoms: _481  and  _484
REMARK  209  A    between atoms: _484  and  _485
REMARK  210  A    between atoms: _490  and  _492
REMARK  211  A    between atoms: _492  and  _493
REMARK  212  A    between atoms: _492  and  _495
REMARK  213  A    between atoms: _495  and  _496
REMARK  214  A    between atoms: _506  and  _508
REMARK  215  A    between atoms: _508  and  _509
REMARK  216  A    between atoms: _508  and  _511
REMARK  217  A    between atoms: _511  and  _512
REMARK  218  A    between atoms: _512  and  _513
REMARK  219  A    between atoms: _516  and  _518
REMARK  220  A    between atoms: _518  and  _519
REMARK  221  A    between atoms: _518  and  _521
REMARK  222  A    between atoms: _521  and  _522
REMARK  223  A    between atoms: _524  and  _526
REMARK  224  A    between atoms: _526  and  _527
REMARK  225  A    between atoms: _526  and  _529
REMARK  226  A    between atoms: _529  and  _530
REMARK  227  A    between atoms: _536  and  _538
REMARK  228  A    between atoms: _538  and  _539
REMARK  229  A    between atoms: _538  and  _541
REMARK  230  A    between atoms: _541  and  _542
REMARK  231  A    between atoms: _545  and  _547
REMARK  232  A    between atoms: _547  and  _548
REMARK  233  A    between atoms: _547  and  _550
REMARK  234  A    between atoms: _553  and  _555
REMARK  235  A    between atoms: _555  and  _556
REMARK  236  A    between atoms: _558  and  _560
REMARK  237  A    between atoms: _560  and  _561
REMARK  238  A    between atoms: _560  and  _563
REMARK  239  A    between atoms: _563  and  _564
REMARK  240  A    between atoms: _567  and  _569
REMARK  241  A    between atoms: _569  and  _570
REMARK  242  A    between atoms: _569  and  _572
REMARK  243  A    between atoms: _572  and  _573
REMARK  244  A    between atoms: _573  and  _574
REMARK  245  A    between atoms: _574  and  _575
REMARK  246  A    between atoms: _575  and  _576
REMARK  247  A    between atoms: _580  and  _582
REMARK  248  A    between atoms: _582  and  _583
REMARK  249  A    between atoms: _582  and  _585
REMARK                            x       y       z     vdW  Elec       q    Type
REMARK                         _______ _______ _______ _____ _____    ______ ____
ROOT
ATOM      1  O   HOH     1      12.226 -13.660 -25.039  0.00  0.00    +0.000 OA
ENDROOT
TORSDOF 0
REMARK  Name = ../refined-set-2016/4o05/4o05_pocket.pdb
REMARK  249 active torsions:
REMARK  status: ('A' for Active; 'I' for Inactive)
REMARK    1  A    between atoms: _1  and  _3
REMARK    2  A    between atoms: _3  and  _4
REMARK    3  A    between atoms: _3  and  _6
REMARK    4  A    between atoms: _6  and  _7
REMARK    5  A    between atoms: _13  and  _15
REMARK    6  A    between atoms: _15  and  _16
REMARK    7  A    between atoms: _15  and  _18
REMARK    8  A    between atoms: _18  and  _19
REMARK    9  A    between atoms: _19  and  _20
REMARK   10  A    between atoms: _25  and  _27
REMARK   11  A    between atoms: _27  and  _28
REMARK   12  A    between atoms: _27  and  _30
REMARK   13  A    between atoms: _30  and  _31
REMARK   14  A    between atoms: _34  and  _36
REMARK   15  A    between atoms: _36  and  _37
REMARK   16  A    between atoms: _36  and  _39
REMARK   17  A    between atoms: _39  and  _40
REMARK   18  A    between atoms: _40  and  _41
REMARK   19  A    between atoms: _44  and  _46
REMARK   20  A    between atoms: _46  and  _47
REMARK   21  A    between atoms: _46  and  _49
REMARK   22  A    between atoms: _49  and  _50
REMARK   23  A    between atoms: _53  and  _55
REMARK   24  A    between atoms: _55  and  _56
REMARK   25  A    between atoms: _55  and  _58
REMARK   26  A    between atoms: _58  and  _59
REMARK   27  A    between atoms: _62  and  _64
REMARK   28  A    between atoms: _64  and  _65
REMARK   29  A    between atoms: _64  and  _67
REMARK   30  A    between atoms: _67  and  _68
REMARK   31  A    between atoms: _70  and  _72
REMARK   32  A    between atoms: _72  and  _73
REMARK   33  A    between atoms: _72  and  _75
REMARK   34  A    between atoms: _75  and  _76
REMARK   35  A    between atoms: _81  and  _83
REMARK   36  A    between atoms: _83  and  _84
REMARK   37  A    between atoms: _83  and  _86
REMARK   38  A    between atoms: _86  and  _87
REMARK   39  A    between atoms: _89  and  _91
REMARK   40  A    between atoms: _91  and  _92
REMARK   41  A    between atoms: _91  and  _94
REMARK   42  A    between atoms: _94  and  _95
REMARK   43  A    between atoms: _97  and  _99
REMARK   44  A    between atoms: _99  and  _100
REMARK   45  A    between atoms: _99  and  _102
REMARK   46  A    between atoms: _102  and  _103
REMARK   47  A    between atoms: _106  and  _108
REMARK   48  A    between atoms: _108  and  _109
REMARK   49  A    between atoms: _112  and  _114
REMARK   50  A    between atoms: _114  and  _115
REMARK   51  A    between atoms: _114  and  _117
REMARK   52  A    between atoms: _117  and  _118
REMARK   53  A    between atoms: _121  and  _123
REMARK   54  A    between atoms: _123  and  _124
REMARK   55  A    between atoms: _123  and  _126
REMARK   56  A    between atoms: _126  and  _127
REMARK   57  A    between atoms: _127  and  _128
REMARK   58  A    between atoms: _128  and  _129
REMARK   59  A    between atoms: _129  and  _130
REMARK   60  A    between atoms: _134  and  _136
REMARK   61  A    between atoms: _136  and  _137
REMARK   62  A    between atoms: _136  and  _139
REMARK   63  A    between atoms: _139  and  _140
REMARK   64  A    between atoms: _143  and  _145
REMARK   65  A    between atoms: _145  and  _146
REMARK   66  A    between atoms: _145  and  _148
REMARK   67  A    between atoms: _148  and  _149
REMARK   68  A    between atoms: _152  and  _154
REMARK   69  A    between atoms: _154  and  _155
REMARK   70  A    between atoms: _154  and  _157
REMARK   71  A    between atoms: _160  and  _162
REMARK   72  A    between atoms: _162  and  _163
REMARK   73  A    between atoms: _162  and  _165
REMARK   74  A    between atoms: _165  and  _166
REMARK   75  A    between atoms: _169  and  _171
REMARK   76  A    between atoms: _171  and  _172
REMARK   77  A    between atoms: _171  and  _174
REMARK   78  A    between atoms: _174  and  _175
REMARK   79  A    between atoms: _178  and  _180
REMARK   80  A    between atoms: _180  and  _181
REMARK   81  A    between atoms: _183  and  _185
REMARK   82  A    between atoms: _185  and  _186
REMARK   83  A    between atoms: _185  and  _188
REMARK   84  A    between atoms: _188  and  _189
REMARK   85  A    between atoms: _192  and  _194
REMARK   86  A    between atoms: _194  and  _195
REMARK   87  A    between atoms: _197  and  _199
REMARK   88  A    between atoms: _199  and  _200
REMARK   89  A    between atoms: _199  and  _202
REMARK   90  A    between atoms: _202  and  _203
REMARK   91  A    between atoms: _203  and  _204
REMARK   92  A    between atoms: _206  and  _208
REMARK   93  A    between atoms: _208  and  _209
REMARK   94  A    between atoms: _208  and  _211
REMARK   95  A    between atoms: _211  and  _212
REMARK   96  A    between atoms: _215  and  _217
REMARK   97  A    between atoms: _217  and  _218
REMARK   98  A    between atoms: _217  and  _220
REMARK   99  A    between atoms: _220  and  _221
REMARK  100  A    between atoms: _221  and  _222
REMARK  101  A    between atoms: _222  and  _223
REMARK  102  A    between atoms: _223  and  _224
REMARK  103  A    between atoms: _228  and  _230
REMARK  104  A    between atoms: _230  and  _231
REMARK  105  A    between atoms: _234  and  _236
REMARK  106  A    between atoms: _236  and  _237
REMARK  107  A    between atoms: _236  and  _239
REMARK  108  A    between atoms: _239  and  _240
REMARK  109  A    between atoms: _243  and  _245
REMARK  110  A    between atoms: _245  and  _246
REMARK  111  A    between atoms: _245  and  _248
REMARK  112  A    between atoms: _248  and  _249
REMARK  113  A    between atoms: _252  and  _254
REMARK  114  A    between atoms: _254  and  _255
REMARK  115  A    between atoms: _254  and  _257
REMARK  116  A    between atoms: _257  and  _258
REMARK  117  A    between atoms: _261  and  _263
REMARK  118  A    between atoms: _263  and  _264
REMARK  119  A    between atoms: _263  and  _266
REMARK  120  A    between atoms: _266  and  _267
REMARK  121  A    between atoms: _272  and  _274
REMARK  122  A    between atoms: _274  and  _275
REMARK  123  A    between atoms: _274  and  _277
REMARK  124  A    between atoms: _277  and  _278
REMARK  125  A    between atoms: _283  and  _285
REMARK  126  A    between atoms: _285  and  _286
REMARK  127  A    between atoms: _285  and  _288
REMARK  128  A    between atoms: _288  and  _289
REMARK  129  A    between atoms: _292  and  _294
REMARK  130  A    between atoms: _294  and  _295
REMARK  131  A    between atoms: _297  and  _299
REMARK  132  A    between atoms: _299  and  _300
REMARK  133  A    between atoms: _299  and  _302
REMARK  134  A    between atoms: _302  and  _303
REMARK  135  A    between atoms: _306  and  _308
REMARK  136  A    between atoms: _308  and  _309
REMARK  137  A    between atoms: _308  and  _311
REMARK  138  A    between atoms: _311  and  _312
REMARK  139  A    between atoms: _315  and  _317
REMARK  140  A    between atoms: _317  and  _318
REMARK  141  A    between atoms: _321  and  _323
REMARK  142  A    between atoms: _323  and  _324
REMARK  143  A    between atoms: _323  and  _326
REMARK  144  A    between atoms: _326  and  _327
REMARK  145  A    between atoms: _327  and  _328
REMARK  146  A    between atoms: _328  and  _329
REMARK  147  A    between atoms: _329  and  _330
REMARK  148  A    between atoms: _334  and  _336
REMARK  149  A    between atoms: _336  and  _337
REMARK  150  A    between atoms: _339  and  _341
REMARK  151  A    between atoms: _341  and  _342
REMARK  152  A    between atoms: _341  and  _344
REMARK  153  A    between atoms: _344  and  _345
REMARK  154  A    between atoms: _348  and  _350
REMARK  155  A    between atoms: _350  and  _351
REMARK  156  A    between atoms: _353  and  _355
REMARK  157  A    between atoms: _355  and  _356
REMARK  158  A    between atoms: _355  and  _358
REMARK  159  A    between atoms: _358  and  _359
REMARK  160  A    between atoms: _365  and  _367
REMARK  161  A    between atoms: _367  and  _368
REMARK  162  A    between atoms: _370  and  _372
REMARK  163  A    between atoms: _372  and  _373
REMARK  164  A    between atoms: _372  and  _375
REMARK  165  A    between atoms: _378  and  _380
REMARK  166  A    between atoms: _380  and  _381
REMARK  167  A    between atoms: _383  and  _385
REMARK  168  A    between atoms: _385  and  _386
REMARK  169  A    between atoms: _385  and  _388
REMARK  170  A    between atoms: _388  and  _389
REMARK  171  A    between atoms: _395  and  _397
REMARK  172  A    between atoms: _397  and  _398
REMARK  173  A    between atoms: _397  and  _400
REMARK  174  A    between atoms: _400  and  _401
REMARK  175  A    between atoms: _406  and  _407
REMARK  176  A    between atoms: _409  and  _411
REMARK  177  A    between atoms: _411  and  _412
REMARK  178  A    between atoms: _411  and  _414
REMARK  179  A    between atoms: _414  and  _415
REMARK  180  A    between atoms: _420  and  _421
REMARK  181  A    between atoms: _423  and  _425
REMARK  182  A    between atoms: _425  and  _426
REMARK  183  A    between atoms: _425  and  _428
REMARK  184  A    between atoms: _431  and  _433
REMARK  185  A    between atoms: _433  and  _434
REMARK  186  A    between atoms: _433  and  _436
REMARK  187  A    between atoms: _436  and  _437
REMARK  188  A    between atoms: _440  and  _442
REMARK  189  A    between atoms: _442  and  _443
REMARK  190  A    between atoms: _442  and  _445
REMARK  191  A    between atoms: _448  and  _450
REMARK  192  A    between atoms: _450  and  _451
REMARK  193  A    between atoms: _450  and  _453
REMARK  194  A    between atoms: _453  and  _454
REMARK  195  A    between atoms: _457  and  _459
REMARK  196  A    between atoms: _459  and  _460
REMARK  197  A    between atoms: _459  and  _462
REMARK  198  A    between atoms: _462  and  _463
REMARK  199  A    between atoms: _466  and  _468
REMARK  200  A    between atoms: _468  and  _469
REMARK  201  A    between atoms: _468  and  _471
REMARK  202  A    between atoms: _471  and  _472
REMARK  203  A    between atoms: _472  and  _473
REMARK  204  A    between atoms: _473  and  _474
REMARK  205  A    between atoms: _474  and  _475
REMARK  206  A    between atoms: _479  and  _481
REMARK  207  A    between atoms: _481  and  _482
REMARK  208  A    between atoms: _481  and  _484
REMARK  209  A    between atoms: _484  and  _485
REMARK  210  A    between atoms: _490  and  _492
REMARK  211  A    between atoms: _492  and  _493
REMARK  212  A    between atoms: _492  and  _495
REMARK  213  A    between atoms: _495  and  _496
REMARK  214  A    between atoms: _506  and  _508
REMARK  215  A    between atoms: _508  and  _509
REMARK  216  A    between atoms: _508  and  _511
REMARK  217  A    between atoms: _511  and  _512
REMARK  218  A    between atoms: _512  and  _513
REMARK  219  A    between atoms: _516  and  _518
REMARK  220  A    between atoms: _518  and  _519
REMARK  221  A    between atoms: _518  and  _521
REMARK  222  A    between atoms: _521  and  _522
REMARK  223  A    between atoms: _524  and  _526
REMARK  224  A    between atoms: _526  and  _527
REMARK  225  A    between atoms: _526  and  _529
REMARK  226  A    between atoms: _529  and  _530
REMARK  227  A    between atoms: _536  and  _538
REMARK  228  A    between atoms: _538  and  _539
REMARK  229  A    between atoms: _538  and  _541
REMARK  230  A    between atoms: _541  and  _542
REMARK  231  A    between atoms: _545  and  _547
REMARK  232  A    between atoms: _547  and  _548
REMARK  233  A    between atoms: _547  and  _550
REMARK  234  A    between atoms: _553  and  _555
REMARK  235  A    between atoms: _555  and  _556
REMARK  236  A    between atoms: _558  and  _560
REMARK  237  A    between atoms: _560  and  _561
REMARK  238  A    between atoms: _560  and  _563
REMARK  239  A    between atoms: _563  and  _564
REMARK  240  A    between atoms: _567  and  _569
REMARK  241  A    between atoms: _569  and  _570
REMARK  242  A    between atoms: _569  and  _572
REMARK  243  A    between atoms: _572  and  _573
REMARK  244  A    between atoms: _573  and  _574
REMARK  245  A    between atoms: _574  and  _575
REMARK  246  A    between atoms: _575  and  _576
REMARK  247  A    between atoms: _580  and  _582
REMARK  248  A    between atoms: _582  and  _583
REMARK  249  A    between atoms: _582  and  _585
REMARK                            x       y       z     vdW  Elec       q    Type
REMARK                         _______ _______ _______ _____ _____    ______ ____
ROOT
ATOM      1  O   HOH     1      11.169  -3.079 -21.151  0.00  0.00    +0.000 OA
ENDROOT
TORSDOF 0
REMARK  Name = ../refined-set-2016/4o05/4o05_pocket.pdb
REMARK  249 active torsions:
REMARK  status: ('A' for Active; 'I' for Inactive)
REMARK    1  A    between atoms: _1  and  _3
REMARK    2  A    between atoms: _3  and  _4
REMARK    3  A    between atoms: _3  and  _6
REMARK    4  A    between atoms: _6  and  _7
REMARK    5  A    between atoms: _13  and  _15
REMARK    6  A    between atoms: _15  and  _16
REMARK    7  A    between atoms: _15  and  _18
REMARK    8  A    between atoms: _18  and  _19
REMARK    9  A    between atoms: _19  and  _20
REMARK   10  A    between atoms: _25  and  _27
REMARK   11  A    between atoms: _27  and  _28
REMARK   12  A    between atoms: _27  and  _30
REMARK   13  A    between atoms: _30  and  _31
REMARK   14  A    between atoms: _34  and  _36
REMARK   15  A    between atoms: _36  and  _37
REMARK   16  A    between atoms: _36  and  _39
REMARK   17  A    between atoms: _39  and  _40
REMARK   18  A    between atoms: _40  and  _41
REMARK   19  A    between atoms: _44  and  _46
REMARK   20  A    between atoms: _46  and  _47
REMARK   21  A    between atoms: _46  and  _49
REMARK   22  A    between atoms: _49  and  _50
REMARK   23  A    between atoms: _53  and  _55
REMARK   24  A    between atoms: _55  and  _56
REMARK   25  A    between atoms: _55  and  _58
REMARK   26  A    between atoms: _58  and  _59
REMARK   27  A    between atoms: _62  and  _64
REMARK   28  A    between atoms: _64  and  _65
REMARK   29  A    between atoms: _64  and  _67
REMARK   30  A    between atoms: _67  and  _68
REMARK   31  A    between atoms: _70  and  _72
REMARK   32  A    between atoms: _72  and  _73
REMARK   33  A    between atoms: _72  and  _75
REMARK   34  A    between atoms: _75  and  _76
REMARK   35  A    between atoms: _81  and  _83
REMARK   36  A    between atoms: _83  and  _84
REMARK   37  A    between atoms: _83  and  _86
REMARK   38  A    between atoms: _86  and  _87
REMARK   39  A    between atoms: _89  and  _91
REMARK   40  A    between atoms: _91  and  _92
REMARK   41  A    between atoms: _91  and  _94
REMARK   42  A    between atoms: _94  and  _95
REMARK   43  A    between atoms: _97  and  _99
REMARK   44  A    between atoms: _99  and  _100
REMARK   45  A    between atoms: _99  and  _102
REMARK   46  A    between atoms: _102  and  _103
REMARK   47  A    between atoms: _106  and  _108
REMARK   48  A    between atoms: _108  and  _109
REMARK   49  A    between atoms: _112  and  _114
REMARK   50  A    between atoms: _114  and  _115
REMARK   51  A    between atoms: _114  and  _117
REMARK   52  A    between atoms: _117  and  _118
REMARK   53  A    between atoms: _121  and  _123
REMARK   54  A    between atoms: _123  and  _124
REMARK   55  A    between atoms: _123  and  _126
REMARK   56  A    between atoms: _126  and  _127
REMARK   57  A    between atoms: _127  and  _128
REMARK   58  A    between atoms: _128  and  _129
REMARK   59  A    between atoms: _129  and  _130
REMARK   60  A    between atoms: _134  and  _136
REMARK   61  A    between atoms: _136  and  _137
REMARK   62  A    between atoms: _136  and  _139
REMARK   63  A    between atoms: _139  and  _140
REMARK   64  A    between atoms: _143  and  _145
REMARK   65  A    between atoms: _145  and  _146
REMARK   66  A    between atoms: _145  and  _148
REMARK   67  A    between atoms: _148  and  _149
REMARK   68  A    between atoms: _152  and  _154
REMARK   69  A    between atoms: _154  and  _155
REMARK   70  A    between atoms: _154  and  _157
REMARK   71  A    between atoms: _160  and  _162
REMARK   72  A    between atoms: _162  and  _163
REMARK   73  A    between atoms: _162  and  _165
REMARK   74  A    between atoms: _165  and  _166
REMARK   75  A    between atoms: _169  and  _171
REMARK   76  A    between atoms: _171  and  _172
REMARK   77  A    between atoms: _171  and  _174
REMARK   78  A    between atoms: _174  and  _175
REMARK   79  A    between atoms: _178  and  _180
REMARK   80  A    between atoms: _180  and  _181
REMARK   81  A    between atoms: _183  and  _185
REMARK   82  A    between atoms: _185  and  _186
REMARK   83  A    between atoms: _185  and  _188
REMARK   84  A    between atoms: _188  and  _189
REMARK   85  A    between atoms: _192  and  _194
REMARK   86  A    between atoms: _194  and  _195
REMARK   87  A    between atoms: _197  and  _199
REMARK   88  A    between atoms: _199  and  _200
REMARK   89  A    between atoms: _199  and  _202
REMARK   90  A    between atoms: _202  and  _203
REMARK   91  A    between atoms: _203  and  _204
REMARK   92  A    between atoms: _206  and  _208
REMARK   93  A    between atoms: _208  and  _209
REMARK   94  A    between atoms: _208  and  _211
REMARK   95  A    between atoms: _211  and  _212
REMARK   96  A    between atoms: _215  and  _217
REMARK   97  A    between atoms: _217  and  _218
REMARK   98  A    between atoms: _217  and  _220
REMARK   99  A    between atoms: _220  and  _221
REMARK  100  A    between atoms: _221  and  _222
REMARK  101  A    between atoms: _222  and  _223
REMARK  102  A    between atoms: _223  and  _224
REMARK  103  A    between atoms: _228  and  _230
REMARK  104  A    between atoms: _230  and  _231
REMARK  105  A    between atoms: _234  and  _236
REMARK  106  A    between atoms: _236  and  _237
REMARK  107  A    between atoms: _236  and  _239
REMARK  108  A    between atoms: _239  and  _240
REMARK  109  A    between atoms: _243  and  _245
REMARK  110  A    between atoms: _245  and  _246
REMARK  111  A    between atoms: _245  and  _248
REMARK  112  A    between atoms: _248  and  _249
REMARK  113  A    between atoms: _252  and  _254
REMARK  114  A    between atoms: _254  and  _255
REMARK  115  A    between atoms: _254  and  _257
REMARK  116  A    between atoms: _257  and  _258
REMARK  117  A    between atoms: _261  and  _263
REMARK  118  A    between atoms: _263  and  _264
REMARK  119  A    between atoms: _263  and  _266
REMARK  120  A    between atoms: _266  and  _267
REMARK  121  A    between atoms: _272  and  _274
REMARK  122  A    between atoms: _274  and  _275
REMARK  123  A    between atoms: _274  and  _277
REMARK  124  A    between atoms: _277  and  _278
REMARK  125  A    between atoms: _283  and  _285
REMARK  126  A    between atoms: _285  and  _286
REMARK  127  A    between atoms: _285  and  _288
REMARK  128  A    between atoms: _288  and  _289
REMARK  129  A    between atoms: _292  and  _294
REMARK  130  A    between atoms: _294  and  _295
REMARK  131  A    between atoms: _297  and  _299
REMARK  132  A    between atoms: _299  and  _300
REMARK  133  A    between atoms: _299  and  _302
REMARK  134  A    between atoms: _302  and  _303
REMARK  135  A    between atoms: _306  and  _308
REMARK  136  A    between atoms: _308  and  _309
REMARK  137  A    between atoms: _308  and  _311
REMARK  138  A    between atoms: _311  and  _312
REMARK  139  A    between atoms: _315  and  _317
REMARK  140  A    between atoms: _317  and  _318
REMARK  141  A    between atoms: _321  and  _323
REMARK  142  A    between atoms: _323  and  _324
REMARK  143  A    between atoms: _323  and  _326
REMARK  144  A    between atoms: _326  and  _327
REMARK  145  A    between atoms: _327  and  _328
REMARK  146  A    between atoms: _328  and  _329
REMARK  147  A    between atoms: _329  and  _330
REMARK  148  A    between atoms: _334  and  _336
REMARK  149  A    between atoms: _336  and  _337
REMARK  150  A    between atoms: _339  and  _341
REMARK  151  A    between atoms: _341  and  _342
REMARK  152  A    between atoms: _341  and  _344
REMARK  153  A    between atoms: _344  and  _345
REMARK  154  A    between atoms: _348  and  _350
REMARK  155  A    between atoms: _350  and  _351
REMARK  156  A    between atoms: _353  and  _355
REMARK  157  A    between atoms: _355  and  _356
REMARK  158  A    between atoms: _355  and  _358
REMARK  159  A    between atoms: _358  and  _359
REMARK  160  A    between atoms: _365  and  _367
REMARK  161  A    between atoms: _367  and  _368
REMARK  162  A    between atoms: _370  and  _372
REMARK  163  A    between atoms: _372  and  _373
REMARK  164  A    between atoms: _372  and  _375
REMARK  165  A    between atoms: _378  and  _380
REMARK  166  A    between atoms: _380  and  _381
REMARK  167  A    between atoms: _383  and  _385
REMARK  168  A    between atoms: _385  and  _386
REMARK  169  A    between atoms: _385  and  _388
REMARK  170  A    between atoms: _388  and  _389
REMARK  171  A    between atoms: _395  and  _397
REMARK  172  A    between atoms: _397  and  _398
REMARK  173  A    between atoms: _397  and  _400
REMARK  174  A    between atoms: _400  and  _401
REMARK  175  A    between atoms: _406  and  _407
REMARK  176  A    between atoms: _409  and  _411
REMARK  177  A    between atoms: _411  and  _412
REMARK  178  A    between atoms: _411  and  _414
REMARK  179  A    between atoms: _414  and  _415
REMARK  180  A    between atoms: _420  and  _421
REMARK  181  A    between atoms: _423  and  _425
REMARK  182  A    between atoms: _425  and  _426
REMARK  183  A    between atoms: _425  and  _428
REMARK  184  A    between atoms: _431  and  _433
REMARK  185  A    between atoms: _433  and  _434
REMARK  186  A    between atoms: _433  and  _436
REMARK  187  A    between atoms: _436  and  _437
REMARK  188  A    between atoms: _440  and  _442
REMARK  189  A    between atoms: _442  and  _443
REMARK  190  A    between atoms: _442  and  _445
REMARK  191  A    between atoms: _448  and  _450
REMARK  192  A    between atoms: _450  and  _451
REMARK  193  A    between atoms: _450  and  _453
REMARK  194  A    between atoms: _453  and  _454
REMARK  195  A    between atoms: _457  and  _459
REMARK  196  A    between atoms: _459  and  _460
REMARK  197  A    between atoms: _459  and  _462
REMARK  198  A    between atoms: _462  and  _463
REMARK  199  A    between atoms: _466  and  _468
REMARK  200  A    between atoms: _468  and  _469
REMARK  201  A    between atoms: _468  and  _471
REMARK  202  A    between atoms: _471  and  _472
REMARK  203  A    between atoms: _472  and  _473
REMARK  204  A    between atoms: _473  and  _474
REMARK  205  A    between atoms: _474  and  _475
REMARK  206  A    between atoms: _479  and  _481
REMARK  207  A    between atoms: _481  and  _482
REMARK  208  A    between atoms: _481  and  _484
REMARK  209  A    between atoms: _484  and  _485
REMARK  210  A    between atoms: _490  and  _492
REMARK  211  A    between atoms: _492  and  _493
REMARK  212  A    between atoms: _492  and  _495
REMARK  213  A    between atoms: _495  and  _496
REMARK  214  A    between atoms: _506  and  _508
REMARK  215  A    between atoms: _508  and  _509
REMARK  216  A    between atoms: _508  and  _511
REMARK  217  A    between atoms: _511  and  _512
REMARK  218  A    between atoms: _512  and  _513
REMARK  219  A    between atoms: _516  and  _518
REMARK  220  A    between atoms: _518  and  _519
REMARK  221  A    between atoms: _518  and  _521
REMARK  222  A    between atoms: _521  and  _522
REMARK  223  A    between atoms: _524  and  _526
REMARK  224  A    between atoms: _526  and  _527
REMARK  225  A    between atoms: _526  and  _529
REMARK  226  A    between atoms: _529  and  _530
REMARK  227  A    between atoms: _536  and  _538
REMARK  228  A    between atoms: _538  and  _539
REMARK  229  A    between atoms: _538  and  _541
REMARK  230  A    between atoms: _541  and  _542
REMARK  231  A    between atoms: _545  and  _547
REMARK  232  A    between atoms: _547  and  _548
REMARK  233  A    between atoms: _547  and  _550
REMARK  234  A    between atoms: _553  and  _555
REMARK  235  A    between atoms: _555  and  _556
REMARK  236  A    between atoms: _558  and  _560
REMARK  237  A    between atoms: _560  and  _561
REMARK  238  A    between atoms: _560  and  _563
REMARK  239  A    between atoms: _563  and  _564
REMARK  240  A    between atoms: _567  and  _569
REMARK  241  A    between atoms: _569  and  _570
REMARK  242  A    between atoms: _569  and  _572
REMARK  243  A    between atoms: _572  and  _573
REMARK  244  A    between atoms: _573  and  _574
REMARK  245  A    between atoms: _574  and  _575
REMARK  246  A    between atoms: _575  and  _576
REMARK  247  A    between atoms: _580  and  _582
REMARK  248  A    between atoms: _582  and  _583
REMARK  249  A    between atoms: _582  and  _585
REMARK                            x       y       z     vdW  Elec       q    Type
REMARK                         _______ _______ _______ _____ _____    ______ ____
ROOT
ATOM      1  O   HOH     1       0.452  -7.203 -23.602  0.00  0.00    +0.000 OA
ENDROOT
TORSDOF 0
REMARK  Name = ../refined-set-2016/4o05/4o05_pocket.pdb
REMARK  249 active torsions:
REMARK  status: ('A' for Active; 'I' for Inactive)
REMARK    1  A    between atoms: _1  and  _3
REMARK    2  A    between atoms: _3  and  _4
REMARK    3  A    between atoms: _3  and  _6
REMARK    4  A    between atoms: _6  and  _7
REMARK    5  A    between atoms: _13  and  _15
REMARK    6  A    between atoms: _15  and  _16
REMARK    7  A    between atoms: _15  and  _18
REMARK    8  A    between atoms: _18  and  _19
REMARK    9  A    between atoms: _19  and  _20
REMARK   10  A    between atoms: _25  and  _27
REMARK   11  A    between atoms: _27  and  _28
REMARK   12  A    between atoms: _27  and  _30
REMARK   13  A    between atoms: _30  and  _31
REMARK   14  A    between atoms: _34  and  _36
REMARK   15  A    between atoms: _36  and  _37
REMARK   16  A    between atoms: _36  and  _39
REMARK   17  A    between atoms: _39  and  _40
REMARK   18  A    between atoms: _40  and  _41
REMARK   19  A    between atoms: _44  and  _46
REMARK   20  A    between atoms: _46  and  _47
REMARK   21  A    between atoms: _46  and  _49
REMARK   22  A    between atoms: _49  and  _50
REMARK   23  A    between atoms: _53  and  _55
REMARK   24  A    between atoms: _55  and  _56
REMARK   25  A    between atoms: _55  and  _58
REMARK   26  A    between atoms: _58  and  _59
REMARK   27  A    between atoms: _62  and  _64
REMARK   28  A    between atoms: _64  and  _65
REMARK   29  A    between atoms: _64  and  _67
REMARK   30  A    between atoms: _67  and  _68
REMARK   31  A    between atoms: _70  and  _72
REMARK   32  A    between atoms: _72  and  _73
REMARK   33  A    between atoms: _72  and  _75
REMARK   34  A    between atoms: _75  and  _76
REMARK   35  A    between atoms: _81  and  _83
REMARK   36  A    between atoms: _83  and  _84
REMARK   37  A    between atoms: _83  and  _86
REMARK   38  A    between atoms: _86  and  _87
REMARK   39  A    between atoms: _89  and  _91
REMARK   40  A    between atoms: _91  and  _92
REMARK   41  A    between atoms: _91  and  _94
REMARK   42  A    between atoms: _94  and  _95
REMARK   43  A    between atoms: _97  and  _99
REMARK   44  A    between atoms: _99  and  _100
REMARK   45  A    between atoms: _99  and  _102
REMARK   46  A    between atoms: _102  and  _103
REMARK   47  A    between atoms: _106  and  _108
REMARK   48  A    between atoms: _108  and  _109
REMARK   49  A    between atoms: _112  and  _114
REMARK   50  A    between atoms: _114  and  _115
REMARK   51  A    between atoms: _114  and  _117
REMARK   52  A    between atoms: _117  and  _118
REMARK   53  A    between atoms: _121  and  _123
REMARK   54  A    between atoms: _123  and  _124
REMARK   55  A    between atoms: _123  and  _126
REMARK   56  A    between atoms: _126  and  _127
REMARK   57  A    between atoms: _127  and  _128
REMARK   58  A    between atoms: _128  and  _129
REMARK   59  A    between atoms: _129  and  _130
REMARK   60  A    between atoms: _134  and  _136
REMARK   61  A    between atoms: _136  and  _137
REMARK   62  A    between atoms: _136  and  _139
REMARK   63  A    between atoms: _139  and  _140
REMARK   64  A    between atoms: _143  and  _145
REMARK   65  A    between atoms: _145  and  _146
REMARK   66  A    between atoms: _145  and  _148
REMARK   67  A    between atoms: _148  and  _149
REMARK   68  A    between atoms: _152  and  _154
REMARK   69  A    between atoms: _154  and  _155
REMARK   70  A    between atoms: _154  and  _157
REMARK   71  A    between atoms: _160  and  _162
REMARK   72  A    between atoms: _162  and  _163
REMARK   73  A    between atoms: _162  and  _165
REMARK   74  A    between atoms: _165  and  _166
REMARK   75  A    between atoms: _169  and  _171
REMARK   76  A    between atoms: _171  and  _172
REMARK   77  A    between atoms: _171  and  _174
REMARK   78  A    between atoms: _174  and  _175
REMARK   79  A    between atoms: _178  and  _180
REMARK   80  A    between atoms: _180  and  _181
REMARK   81  A    between atoms: _183  and  _185
REMARK   82  A    between atoms: _185  and  _186
REMARK   83  A    between atoms: _185  and  _188
REMARK   84  A    between atoms: _188  and  _189
REMARK   85  A    between atoms: _192  and  _194
REMARK   86  A    between atoms: _194  and  _195
REMARK   87  A    between atoms: _197  and  _199
REMARK   88  A    between atoms: _199  and  _200
REMARK   89  A    between atoms: _199  and  _202
REMARK   90  A    between atoms: _202  and  _203
REMARK   91  A    between atoms: _203  and  _204
REMARK   92  A    between atoms: _206  and  _208
REMARK   93  A    between atoms: _208  and  _209
REMARK   94  A    between atoms: _208  and  _211
REMARK   95  A    between atoms: _211  and  _212
REMARK   96  A    between atoms: _215  and  _217
REMARK   97  A    between atoms: _217  and  _218
REMARK   98  A    between atoms: _217  and  _220
REMARK   99  A    between atoms: _220  and  _221
REMARK  100  A    between atoms: _221  and  _222
REMARK  101  A    between atoms: _222  and  _223
REMARK  102  A    between atoms: _223  and  _224
REMARK  103  A    between atoms: _228  and  _230
REMARK  104  A    between atoms: _230  and  _231
REMARK  105  A    between atoms: _234  and  _236
REMARK  106  A    between atoms: _236  and  _237
REMARK  107  A    between atoms: _236  and  _239
REMARK  108  A    between atoms: _239  and  _240
REMARK  109  A    between atoms: _243  and  _245
REMARK  110  A    between atoms: _245  and  _246
REMARK  111  A    between atoms: _245  and  _248
REMARK  112  A    between atoms: _248  and  _249
REMARK  113  A    between atoms: _252  and  _254
REMARK  114  A    between atoms: _254  and  _255
REMARK  115  A    between atoms: _254  and  _257
REMARK  116  A    between atoms: _257  and  _258
REMARK  117  A    between atoms: _261  and  _263
REMARK  118  A    between atoms: _263  and  _264
REMARK  119  A    between atoms: _263  and  _266
REMARK  120  A    between atoms: _266  and  _267
REMARK  121  A    between atoms: _272  and  _274
REMARK  122  A    between atoms: _274  and  _275
REMARK  123  A    between atoms: _274  and  _277
REMARK  124  A    between atoms: _277  and  _278
REMARK  125  A    between atoms: _283  and  _285
REMARK  126  A    between atoms: _285  and  _286
REMARK  127  A    between atoms: _285  and  _288
REMARK  128  A    between atoms: _288  and  _289
REMARK  129  A    between atoms: _292  and  _294
REMARK  130  A    between atoms: _294  and  _295
REMARK  131  A    between atoms: _297  and  _299
REMARK  132  A    between atoms: _299  and  _300
REMARK  133  A    between atoms: _299  and  _302
REMARK  134  A    between atoms: _302  and  _303
REMARK  135  A    between atoms: _306  and  _308
REMARK  136  A    between atoms: _308  and  _309
REMARK  137  A    between atoms: _308  and  _311
REMARK  138  A    between atoms: _311  and  _312
REMARK  139  A    between atoms: _315  and  _317
REMARK  140  A    between atoms: _317  and  _318
REMARK  141  A    between atoms: _321  and  _323
REMARK  142  A    between atoms: _323  and  _324
REMARK  143  A    between atoms: _323  and  _326
REMARK  144  A    between atoms: _326  and  _327
REMARK  145  A    between atoms: _327  and  _328
REMARK  146  A    between atoms: _328  and  _329
REMARK  147  A    between atoms: _329  and  _330
REMARK  148  A    between atoms: _334  and  _336
REMARK  149  A    between atoms: _336  and  _337
REMARK  150  A    between atoms: _339  and  _341
REMARK  151  A    between atoms: _341  and  _342
REMARK  152  A    between atoms: _341  and  _344
REMARK  153  A    between atoms: _344  and  _345
REMARK  154  A    between atoms: _348  and  _350
REMARK  155  A    between atoms: _350  and  _351
REMARK  156  A    between atoms: _353  and  _355
REMARK  157  A    between atoms: _355  and  _356
REMARK  158  A    between atoms: _355  and  _358
REMARK  159  A    between atoms: _358  and  _359
REMARK  160  A    between atoms: _365  and  _367
REMARK  161  A    between atoms: _367  and  _368
REMARK  162  A    between atoms: _370  and  _372
REMARK  163  A    between atoms: _372  and  _373
REMARK  164  A    between atoms: _372  and  _375
REMARK  165  A    between atoms: _378  and  _380
REMARK  166  A    between atoms: _380  and  _381
REMARK  167  A    between atoms: _383  and  _385
REMARK  168  A    between atoms: _385  and  _386
REMARK  169  A    between atoms: _385  and  _388
REMARK  170  A    between atoms: _388  and  _389
REMARK  171  A    between atoms: _395  and  _397
REMARK  172  A    between atoms: _397  and  _398
REMARK  173  A    between atoms: _397  and  _400
REMARK  174  A    between atoms: _400  and  _401
REMARK  175  A    between atoms: _406  and  _407
REMARK  176  A    between atoms: _409  and  _411
REMARK  177  A    between atoms: _411  and  _412
REMARK  178  A    between atoms: _411  and  _414
REMARK  179  A    between atoms: _414  and  _415
REMARK  180  A    between atoms: _420  and  _421
REMARK  181  A    between atoms: _423  and  _425
REMARK  182  A    between atoms: _425  and  _426
REMARK  183  A    between atoms: _425  and  _428
REMARK  184  A    between atoms: _431  and  _433
REMARK  185  A    between atoms: _433  and  _434
REMARK  186  A    between atoms: _433  and  _436
REMARK  187  A    between atoms: _436  and  _437
REMARK  188  A    between atoms: _440  and  _442
REMARK  189  A    between atoms: _442  and  _443
REMARK  190  A    between atoms: _442  and  _445
REMARK  191  A    between atoms: _448  and  _450
REMARK  192  A    between atoms: _450  and  _451
REMARK  193  A    between atoms: _450  and  _453
REMARK  194  A    between atoms: _453  and  _454
REMARK  195  A    between atoms: _457  and  _459
REMARK  196  A    between atoms: _459  and  _460
REMARK  197  A    between atoms: _459  and  _462
REMARK  198  A    between atoms: _462  and  _463
REMARK  199  A    between atoms: _466  and  _468
REMARK  200  A    between atoms: _468  and  _469
REMARK  201  A    between atoms: _468  and  _471
REMARK  202  A    between atoms: _471  and  _472
REMARK  203  A    between atoms: _472  and  _473
REMARK  204  A    between atoms: _473  and  _474
REMARK  205  A    between atoms: _474  and  _475
REMARK  206  A    between atoms: _479  and  _481
REMARK  207  A    between atoms: _481  and  _482
REMARK  208  A    between atoms: _481  and  _484
REMARK  209  A    between atoms: _484  and  _485
REMARK  210  A    between atoms: _490  and  _492
REMARK  211  A    between atoms: _492  and  _493
REMARK  212  A    between atoms: _492  and  _495
REMARK  213  A    between atoms: _495  and  _496
REMARK  214  A    between atoms: _506  and  _508
REMARK  215  A    between atoms: _508  and  _509
REMARK  216  A    between atoms: _508  and  _511
REMARK  217  A    between atoms: _511  and  _512
REMARK  218  A    between atoms: _512  and  _513
REMARK  219  A    between atoms: _516  and  _518
REMARK  220  A    between atoms: _518  and  _519
REMARK  221  A    between atoms: _518  and  _521
REMARK  222  A    between atoms: _521  and  _522
REMARK  223  A    between atoms: _524  and  _526
REMARK  224  A    between atoms: _526  and  _527
REMARK  225  A    between atoms: _526  and  _529
REMARK  226  A    between atoms: _529  and  _530
REMARK  227  A    between atoms: _536  and  _538
REMARK  228  A    between atoms: _538  and  _539
REMARK  229  A    between atoms: _538  and  _541
REMARK  230  A    between atoms: _541  and  _542
REMARK  231  A    between atoms: _545  and  _547
REMARK  232  A    between atoms: _547  and  _548
REMARK  233  A    between atoms: _547  and  _550
REMARK  234  A    between atoms: _553  and  _555
REMARK  235  A    between atoms: _555  and  _556
REMARK  236  A    between atoms: _558  and  _560
REMARK  237  A    between atoms: _560  and  _561
REMARK  238  A    between atoms: _560  and  _563
REMARK  239  A    between atoms: _563  and  _564
REMARK  240  A    between atoms: _567  and  _569
REMARK  241  A    between atoms: _569  and  _570
REMARK  242  A    between atoms: _569  and  _572
REMARK  243  A    between atoms: _572  and  _573
REMARK  244  A    between atoms: _573  and  _574
REMARK  245  A    between atoms: _574  and  _575
REMARK  246  A    between atoms: _575  and  _576
REMARK  247  A    between atoms: _580  and  _582
REMARK  248  A    between atoms: _582  and  _583
REMARK  249  A    between atoms: _582  and  _585
REMARK                            x       y       z     vdW  Elec       q    Type
REMARK                         _______ _______ _______ _____ _____    ______ ____
ROOT
ATOM      1  O   HOH     1      14.802 -13.486 -25.914  0.00  0.00    +0.000 OA
ENDROOT
TORSDOF 0
REMARK  Name = ../refined-set-2016/4o05/4o05_pocket.pdb
REMARK  249 active torsions:
REMARK  status: ('A' for Active; 'I' for Inactive)
REMARK    1  A    between atoms: _1  and  _3
REMARK    2  A    between atoms: _3  and  _4
REMARK    3  A    between atoms: _3  and  _6
REMARK    4  A    between atoms: _6  and  _7
REMARK    5  A    between atoms: _13  and  _15
REMARK    6  A    between atoms: _15  and  _16
REMARK    7  A    between atoms: _15  and  _18
REMARK    8  A    between atoms: _18  and  _19
REMARK    9  A    between atoms: _19  and  _20
REMARK   10  A    between atoms: _25  and  _27
REMARK   11  A    between atoms: _27  and  _28
REMARK   12  A    between atoms: _27  and  _30
REMARK   13  A    between atoms: _30  and  _31
REMARK   14  A    between atoms: _34  and  _36
REMARK   15  A    between atoms: _36  and  _37
REMARK   16  A    between atoms: _36  and  _39
REMARK   17  A    between atoms: _39  and  _40
REMARK   18  A    between atoms: _40  and  _41
REMARK   19  A    between atoms: _44  and  _46
REMARK   20  A    between atoms: _46  and  _47
REMARK   21  A    between atoms: _46  and  _49
REMARK   22  A    between atoms: _49  and  _50
REMARK   23  A    between atoms: _53  and  _55
REMARK   24  A    between atoms: _55  and  _56
REMARK   25  A    between atoms: _55  and  _58
REMARK   26  A    between atoms: _58  and  _59
REMARK   27  A    between atoms: _62  and  _64
REMARK   28  A    between atoms: _64  and  _65
REMARK   29  A    between atoms: _64  and  _67
REMARK   30  A    between atoms: _67  and  _68
REMARK   31  A    between atoms: _70  and  _72
REMARK   32  A    between atoms: _72  and  _73
REMARK   33  A    between atoms: _72  and  _75
REMARK   34  A    between atoms: _75  and  _76
REMARK   35  A    between atoms: _81  and  _83
REMARK   36  A    between atoms: _83  and  _84
REMARK   37  A    between atoms: _83  and  _86
REMARK   38  A    between atoms: _86  and  _87
REMARK   39  A    between atoms: _89  and  _91
REMARK   40  A    between atoms: _91  and  _92
REMARK   41  A    between atoms: _91  and  _94
REMARK   42  A    between atoms: _94  and  _95
REMARK   43  A    between atoms: _97  and  _99
REMARK   44  A    between atoms: _99  and  _100
REMARK   45  A    between atoms: _99  and  _102
REMARK   46  A    between atoms: _102  and  _103
REMARK   47  A    between atoms: _106  and  _108
REMARK   48  A    between atoms: _108  and  _109
REMARK   49  A    between atoms: _112  and  _114
REMARK   50  A    between atoms: _114  and  _115
REMARK   51  A    between atoms: _114  and  _117
REMARK   52  A    between atoms: _117  and  _118
REMARK   53  A    between atoms: _121  and  _123
REMARK   54  A    between atoms: _123  and  _124
REMARK   55  A    between atoms: _123  and  _126
REMARK   56  A    between atoms: _126  and  _127
REMARK   57  A    between atoms: _127  and  _128
REMARK   58  A    between atoms: _128  and  _129
REMARK   59  A    between atoms: _129  and  _130
REMARK   60  A    between atoms: _134  and  _136
REMARK   61  A    between atoms: _136  and  _137
REMARK   62  A    between atoms: _136  and  _139
REMARK   63  A    between atoms: _139  and  _140
REMARK   64  A    between atoms: _143  and  _145
REMARK   65  A    between atoms: _145  and  _146
REMARK   66  A    between atoms: _145  and  _148
REMARK   67  A    between atoms: _148  and  _149
REMARK   68  A    between atoms: _152  and  _154
REMARK   69  A    between atoms: _154  and  _155
REMARK   70  A    between atoms: _154  and  _157
REMARK   71  A    between atoms: _160  and  _162
REMARK   72  A    between atoms: _162  and  _163
REMARK   73  A    between atoms: _162  and  _165
REMARK   74  A    between atoms: _165  and  _166
REMARK   75  A    between atoms: _169  and  _171
REMARK   76  A    between atoms: _171  and  _172
REMARK   77  A    between atoms: _171  and  _174
REMARK   78  A    between atoms: _174  and  _175
REMARK   79  A    between atoms: _178  and  _180
REMARK   80  A    between atoms: _180  and  _181
REMARK   81  A    between atoms: _183  and  _185
REMARK   82  A    between atoms: _185  and  _186
REMARK   83  A    between atoms: _185  and  _188
REMARK   84  A    between atoms: _188  and  _189
REMARK   85  A    between atoms: _192  and  _194
REMARK   86  A    between atoms: _194  and  _195
REMARK   87  A    between atoms: _197  and  _199
REMARK   88  A    between atoms: _199  and  _200
REMARK   89  A    between atoms: _199  and  _202
REMARK   90  A    between atoms: _202  and  _203
REMARK   91  A    between atoms: _203  and  _204
REMARK   92  A    between atoms: _206  and  _208
REMARK   93  A    between atoms: _208  and  _209
REMARK   94  A    between atoms: _208  and  _211
REMARK   95  A    between atoms: _211  and  _212
REMARK   96  A    between atoms: _215  and  _217
REMARK   97  A    between atoms: _217  and  _218
REMARK   98  A    between atoms: _217  and  _220
REMARK   99  A    between atoms: _220  and  _221
REMARK  100  A    between atoms: _221  and  _222
REMARK  101  A    between atoms: _222  and  _223
REMARK  102  A    between atoms: _223  and  _224
REMARK  103  A    between atoms: _228  and  _230
REMARK  104  A    between atoms: _230  and  _231
REMARK  105  A    between atoms: _234  and  _236
REMARK  106  A    between atoms: _236  and  _237
REMARK  107  A    between atoms: _236  and  _239
REMARK  108  A    between atoms: _239  and  _240
REMARK  109  A    between atoms: _243  and  _245
REMARK  110  A    between atoms: _245  and  _246
REMARK  111  A    between atoms: _245  and  _248
REMARK  112  A    between atoms: _248  and  _249
REMARK  113  A    between atoms: _252  and  _254
REMARK  114  A    between atoms: _254  and  _255
REMARK  115  A    between atoms: _254  and  _257
REMARK  116  A    between atoms: _257  and  _258
REMARK  117  A    between atoms: _261  and  _263
REMARK  118  A    between atoms: _263  and  _264
REMARK  119  A    between atoms: _263  and  _266
REMARK  120  A    between atoms: _266  and  _267
REMARK  121  A    between atoms: _272  and  _274
REMARK  122  A    between atoms: _274  and  _275
REMARK  123  A    between atoms: _274  and  _277
REMARK  124  A    between atoms: _277  and  _278
REMARK  125  A    between atoms: _283  and  _285
REMARK  126  A    between atoms: _285  and  _286
REMARK  127  A    between atoms: _285  and  _288
REMARK  128  A    between atoms: _288  and  _289
REMARK  129  A    between atoms: _292  and  _294
REMARK  130  A    between atoms: _294  and  _295
REMARK  131  A    between atoms: _297  and  _299
REMARK  132  A    between atoms: _299  and  _300
REMARK  133  A    between atoms: _299  and  _302
REMARK  134  A    between atoms: _302  and  _303
REMARK  135  A    between atoms: _306  and  _308
REMARK  136  A    between atoms: _308  and  _309
REMARK  137  A    between atoms: _308  and  _311
REMARK  138  A    between atoms: _311  and  _312
REMARK  139  A    between atoms: _315  and  _317
REMARK  140  A    between atoms: _317  and  _318
REMARK  141  A    between atoms: _321  and  _323
REMARK  142  A    between atoms: _323  and  _324
REMARK  143  A    between atoms: _323  and  _326
REMARK  144  A    between atoms: _326  and  _327
REMARK  145  A    between atoms: _327  and  _328
REMARK  146  A    between atoms: _328  and  _329
REMARK  147  A    between atoms: _329  and  _330
REMARK  148  A    between atoms: _334  and  _336
REMARK  149  A    between atoms: _336  and  _337
REMARK  150  A    between atoms: _339  and  _341
REMARK  151  A    between atoms: _341  and  _342
REMARK  152  A    between atoms: _341  and  _344
REMARK  153  A    between atoms: _344  and  _345
REMARK  154  A    between atoms: _348  and  _350
REMARK  155  A    between atoms: _350  and  _351
REMARK  156  A    between atoms: _353  and  _355
REMARK  157  A    between atoms: _355  and  _356
REMARK  158  A    between atoms: _355  and  _358
REMARK  159  A    between atoms: _358  and  _359
REMARK  160  A    between atoms: _365  and  _367
REMARK  161  A    between atoms: _367  and  _368
REMARK  162  A    between atoms: _370  and  _372
REMARK  163  A    between atoms: _372  and  _373
REMARK  164  A    between atoms: _372  and  _375
REMARK  165  A    between atoms: _378  and  _380
REMARK  166  A    between atoms: _380  and  _381
REMARK  167  A    between atoms: _383  and  _385
REMARK  168  A    between atoms: _385  and  _386
REMARK  169  A    between atoms: _385  and  _388
REMARK  170  A    between atoms: _388  and  _389
REMARK  171  A    between atoms: _395  and  _397
REMARK  172  A    between atoms: _397  and  _398
REMARK  173  A    between atoms: _397  and  _400
REMARK  174  A    between atoms: _400  and  _401
REMARK  175  A    between atoms: _406  and  _407
REMARK  176  A    between atoms: _409  and  _411
REMARK  177  A    between atoms: _411  and  _412
REMARK  178  A    between atoms: _411  and  _414
REMARK  179  A    between atoms: _414  and  _415
REMARK  180  A    between atoms: _420  and  _421
REMARK  181  A    between atoms: _423  and  _425
REMARK  182  A    between atoms: _425  and  _426
REMARK  183  A    between atoms: _425  and  _428
REMARK  184  A    between atoms: _431  and  _433
REMARK  185  A    between atoms: _433  and  _434
REMARK  186  A    between atoms: _433  and  _436
REMARK  187  A    between atoms: _436  and  _437
REMARK  188  A    between atoms: _440  and  _442
REMARK  189  A    between atoms: _442  and  _443
REMARK  190  A    between atoms: _442  and  _445
REMARK  191  A    between atoms: _448  and  _450
REMARK  192  A    between atoms: _450  and  _451
REMARK  193  A    between atoms: _450  and  _453
REMARK  194  A    between atoms: _453  and  _454
REMARK  195  A    between atoms: _457  and  _459
REMARK  196  A    between atoms: _459  and  _460
REMARK  197  A    between atoms: _459  and  _462
REMARK  198  A    between atoms: _462  and  _463
REMARK  199  A    between atoms: _466  and  _468
REMARK  200  A    between atoms: _468  and  _469
REMARK  201  A    between atoms: _468  and  _471
REMARK  202  A    between atoms: _471  and  _472
REMARK  203  A    between atoms: _472  and  _473
REMARK  204  A    between atoms: _473  and  _474
REMARK  205  A    between atoms: _474  and  _475
REMARK  206  A    between atoms: _479  and  _481
REMARK  207  A    between atoms: _481  and  _482
REMARK  208  A    between atoms: _481  and  _484
REMARK  209  A    between atoms: _484  and  _485
REMARK  210  A    between atoms: _490  and  _492
REMARK  211  A    between atoms: _492  and  _493
REMARK  212  A    between atoms: _492  and  _495
REMARK  213  A    between atoms: _495  and  _496
REMARK  214  A    between atoms: _506  and  _508
REMARK  215  A    between atoms: _508  and  _509
REMARK  216  A    between atoms: _508  and  _511
REMARK  217  A    between atoms: _511  and  _512
REMARK  218  A    between atoms: _512  and  _513
REMARK  219  A    between atoms: _516  and  _518
REMARK  220  A    between atoms: _518  and  _519
REMARK  221  A    between atoms: _518  and  _521
REMARK  222  A    between atoms: _521  and  _522
REMARK  223  A    between atoms: _524  and  _526
REMARK  224  A    between atoms: _526  and  _527
REMARK  225  A    between atoms: _526  and  _529
REMARK  226  A    between atoms: _529  and  _530
REMARK  227  A    between atoms: _536  and  _538
REMARK  228  A    between atoms: _538  and  _539
REMARK  229  A    between atoms: _538  and  _541
REMARK  230  A    between atoms: _541  and  _542
REMARK  231  A    between atoms: _545  and  _547
REMARK  232  A    between atoms: _547  and  _548
REMARK  233  A    between atoms: _547  and  _550
REMARK  234  A    between atoms: _553  and  _555
REMARK  235  A    between atoms: _555  and  _556
REMARK  236  A    between atoms: _558  and  _560
REMARK  237  A    between atoms: _560  and  _561
REMARK  238  A    between atoms: _560  and  _563
REMARK  239  A    between atoms: _563  and  _564
REMARK  240  A    between atoms: _567  and  _569
REMARK  241  A    between atoms: _569  and  _570
REMARK  242  A    between atoms: _569  and  _572
REMARK  243  A    between atoms: _572  and  _573
REMARK  244  A    between atoms: _573  and  _574
REMARK  245  A    between atoms: _574  and  _575
REMARK  246  A    between atoms: _575  and  _576
REMARK  247  A    between atoms: _580  and  _582
REMARK  248  A    between atoms: _582  and  _583
REMARK  249  A    between atoms: _582  and  _585
REMARK                            x       y       z     vdW  Elec       q    Type
REMARK                         _______ _______ _______ _____ _____    ______ ____
ROOT
ATOM      1  O   HOH     1       1.030  -5.833 -19.439  0.00  0.00    +0.000 OA
ENDROOT
TORSDOF 0
REMARK  Name = ../refined-set-2016/4o05/4o05_pocket.pdb
REMARK  249 active torsions:
REMARK  status: ('A' for Active; 'I' for Inactive)
REMARK    1  A    between atoms: _1  and  _3
REMARK    2  A    between atoms: _3  and  _4
REMARK    3  A    between atoms: _3  and  _6
REMARK    4  A    between atoms: _6  and  _7
REMARK    5  A    between atoms: _13  and  _15
REMARK    6  A    between atoms: _15  and  _16
REMARK    7  A    between atoms: _15  and  _18
REMARK    8  A    between atoms: _18  and  _19
REMARK    9  A    between atoms: _19  and  _20
REMARK   10  A    between atoms: _25  and  _27
REMARK   11  A    between atoms: _27  and  _28
REMARK   12  A    between atoms: _27  and  _30
REMARK   13  A    between atoms: _30  and  _31
REMARK   14  A    between atoms: _34  and  _36
REMARK   15  A    between atoms: _36  and  _37
REMARK   16  A    between atoms: _36  and  _39
REMARK   17  A    between atoms: _39  and  _40
REMARK   18  A    between atoms: _40  and  _41
REMARK   19  A    between atoms: _44  and  _46
REMARK   20  A    between atoms: _46  and  _47
REMARK   21  A    between atoms: _46  and  _49
REMARK   22  A    between atoms: _49  and  _50
REMARK   23  A    between atoms: _53  and  _55
REMARK   24  A    between atoms: _55  and  _56
REMARK   25  A    between atoms: _55  and  _58
REMARK   26  A    between atoms: _58  and  _59
REMARK   27  A    between atoms: _62  and  _64
REMARK   28  A    between atoms: _64  and  _65
REMARK   29  A    between atoms: _64  and  _67
REMARK   30  A    between atoms: _67  and  _68
REMARK   31  A    between atoms: _70  and  _72
REMARK   32  A    between atoms: _72  and  _73
REMARK   33  A    between atoms: _72  and  _75
REMARK   34  A    between atoms: _75  and  _76
REMARK   35  A    between atoms: _81  and  _83
REMARK   36  A    between atoms: _83  and  _84
REMARK   37  A    between atoms: _83  and  _86
REMARK   38  A    between atoms: _86  and  _87
REMARK   39  A    between atoms: _89  and  _91
REMARK   40  A    between atoms: _91  and  _92
REMARK   41  A    between atoms: _91  and  _94
REMARK   42  A    between atoms: _94  and  _95
REMARK   43  A    between atoms: _97  and  _99
REMARK   44  A    between atoms: _99  and  _100
REMARK   45  A    between atoms: _99  and  _102
REMARK   46  A    between atoms: _102  and  _103
REMARK   47  A    between atoms: _106  and  _108
REMARK   48  A    between atoms: _108  and  _109
REMARK   49  A    between atoms: _112  and  _114
REMARK   50  A    between atoms: _114  and  _115
REMARK   51  A    between atoms: _114  and  _117
REMARK   52  A    between atoms: _117  and  _118
REMARK   53  A    between atoms: _121  and  _123
REMARK   54  A    between atoms: _123  and  _124
REMARK   55  A    between atoms: _123  and  _126
REMARK   56  A    between atoms: _126  and  _127
REMARK   57  A    between atoms: _127  and  _128
REMARK   58  A    between atoms: _128  and  _129
REMARK   59  A    between atoms: _129  and  _130
REMARK   60  A    between atoms: _134  and  _136
REMARK   61  A    between atoms: _136  and  _137
REMARK   62  A    between atoms: _136  and  _139
REMARK   63  A    between atoms: _139  and  _140
REMARK   64  A    between atoms: _143  and  _145
REMARK   65  A    between atoms: _145  and  _146
REMARK   66  A    between atoms: _145  and  _148
REMARK   67  A    between atoms: _148  and  _149
REMARK   68  A    between atoms: _152  and  _154
REMARK   69  A    between atoms: _154  and  _155
REMARK   70  A    between atoms: _154  and  _157
REMARK   71  A    between atoms: _160  and  _162
REMARK   72  A    between atoms: _162  and  _163
REMARK   73  A    between atoms: _162  and  _165
REMARK   74  A    between atoms: _165  and  _166
REMARK   75  A    between atoms: _169  and  _171
REMARK   76  A    between atoms: _171  and  _172
REMARK   77  A    between atoms: _171  and  _174
REMARK   78  A    between atoms: _174  and  _175
REMARK   79  A    between atoms: _178  and  _180
REMARK   80  A    between atoms: _180  and  _181
REMARK   81  A    between atoms: _183  and  _185
REMARK   82  A    between atoms: _185  and  _186
REMARK   83  A    between atoms: _185  and  _188
REMARK   84  A    between atoms: _188  and  _189
REMARK   85  A    between atoms: _192  and  _194
REMARK   86  A    between atoms: _194  and  _195
REMARK   87  A    between atoms: _197  and  _199
REMARK   88  A    between atoms: _199  and  _200
REMARK   89  A    between atoms: _199  and  _202
REMARK   90  A    between atoms: _202  and  _203
REMARK   91  A    between atoms: _203  and  _204
REMARK   92  A    between atoms: _206  and  _208
REMARK   93  A    between atoms: _208  and  _209
REMARK   94  A    between atoms: _208  and  _211
REMARK   95  A    between atoms: _211  and  _212
REMARK   96  A    between atoms: _215  and  _217
REMARK   97  A    between atoms: _217  and  _218
REMARK   98  A    between atoms: _217  and  _220
REMARK   99  A    between atoms: _220  and  _221
REMARK  100  A    between atoms: _221  and  _222
REMARK  101  A    between atoms: _222  and  _223
REMARK  102  A    between atoms: _223  and  _224
REMARK  103  A    between atoms: _228  and  _230
REMARK  104  A    between atoms: _230  and  _231
REMARK  105  A    between atoms: _234  and  _236
REMARK  106  A    between atoms: _236  and  _237
REMARK  107  A    between atoms: _236  and  _239
REMARK  108  A    between atoms: _239  and  _240
REMARK  109  A    between atoms: _243  and  _245
REMARK  110  A    between atoms: _245  and  _246
REMARK  111  A    between atoms: _245  and  _248
REMARK  112  A    between atoms: _248  and  _249
REMARK  113  A    between atoms: _252  and  _254
REMARK  114  A    between atoms: _254  and  _255
REMARK  115  A    between atoms: _254  and  _257
REMARK  116  A    between atoms: _257  and  _258
REMARK  117  A    between atoms: _261  and  _263
REMARK  118  A    between atoms: _263  and  _264
REMARK  119  A    between atoms: _263  and  _266
REMARK  120  A    between atoms: _266  and  _267
REMARK  121  A    between atoms: _272  and  _274
REMARK  122  A    between atoms: _274  and  _275
REMARK  123  A    between atoms: _274  and  _277
REMARK  124  A    between atoms: _277  and  _278
REMARK  125  A    between atoms: _283  and  _285
REMARK  126  A    between atoms: _285  and  _286
REMARK  127  A    between atoms: _285  and  _288
REMARK  128  A    between atoms: _288  and  _289
REMARK  129  A    between atoms: _292  and  _294
REMARK  130  A    between atoms: _294  and  _295
REMARK  131  A    between atoms: _297  and  _299
REMARK  132  A    between atoms: _299  and  _300
REMARK  133  A    between atoms: _299  and  _302
REMARK  134  A    between atoms: _302  and  _303
REMARK  135  A    between atoms: _306  and  _308
REMARK  136  A    between atoms: _308  and  _309
REMARK  137  A    between atoms: _308  and  _311
REMARK  138  A    between atoms: _311  and  _312
REMARK  139  A    between atoms: _315  and  _317
REMARK  140  A    between atoms: _317  and  _318
REMARK  141  A    between atoms: _321  and  _323
REMARK  142  A    between atoms: _323  and  _324
REMARK  143  A    between atoms: _323  and  _326
REMARK  144  A    between atoms: _326  and  _327
REMARK  145  A    between atoms: _327  and  _328
REMARK  146  A    between atoms: _328  and  _329
REMARK  147  A    between atoms: _329  and  _330
REMARK  148  A    between atoms: _334  and  _336
REMARK  149  A    between atoms: _336  and  _337
REMARK  150  A    between atoms: _339  and  _341
REMARK  151  A    between atoms: _341  and  _342
REMARK  152  A    between atoms: _341  and  _344
REMARK  153  A    between atoms: _344  and  _345
REMARK  154  A    between atoms: _348  and  _350
REMARK  155  A    between atoms: _350  and  _351
REMARK  156  A    between atoms: _353  and  _355
REMARK  157  A    between atoms: _355  and  _356
REMARK  158  A    between atoms: _355  and  _358
REMARK  159  A    between atoms: _358  and  _359
REMARK  160  A    between atoms: _365  and  _367
REMARK  161  A    between atoms: _367  and  _368
REMARK  162  A    between atoms: _370  and  _372
REMARK  163  A    between atoms: _372  and  _373
REMARK  164  A    between atoms: _372  and  _375
REMARK  165  A    between atoms: _378  and  _380
REMARK  166  A    between atoms: _380  and  _381
REMARK  167  A    between atoms: _383  and  _385
REMARK  168  A    between atoms: _385  and  _386
REMARK  169  A    between atoms: _385  and  _388
REMARK  170  A    between atoms: _388  and  _389
REMARK  171  A    between atoms: _395  and  _397
REMARK  172  A    between atoms: _397  and  _398
REMARK  173  A    between atoms: _397  and  _400
REMARK  174  A    between atoms: _400  and  _401
REMARK  175  A    between atoms: _406  and  _407
REMARK  176  A    between atoms: _409  and  _411
REMARK  177  A    between atoms: _411  and  _412
REMARK  178  A    between atoms: _411  and  _414
REMARK  179  A    between atoms: _414  and  _415
REMARK  180  A    between atoms: _420  and  _421
REMARK  181  A    between atoms: _423  and  _425
REMARK  182  A    between atoms: _425  and  _426
REMARK  183  A    between atoms: _425  and  _428
REMARK  184  A    between atoms: _431  and  _433
REMARK  185  A    between atoms: _433  and  _434
REMARK  186  A    between atoms: _433  and  _436
REMARK  187  A    between atoms: _436  and  _437
REMARK  188  A    between atoms: _440  and  _442
REMARK  189  A    between atoms: _442  and  _443
REMARK  190  A    between atoms: _442  and  _445
REMARK  191  A    between atoms: _448  and  _450
REMARK  192  A    between atoms: _450  and  _451
REMARK  193  A    between atoms: _450  and  _453
REMARK  194  A    between atoms: _453  and  _454
REMARK  195  A    between atoms: _457  and  _459
REMARK  196  A    between atoms: _459  and  _460
REMARK  197  A    between atoms: _459  and  _462
REMARK  198  A    between atoms: _462  and  _463
REMARK  199  A    between atoms: _466  and  _468
REMARK  200  A    between atoms: _468  and  _469
REMARK  201  A    between atoms: _468  and  _471
REMARK  202  A    between atoms: _471  and  _472
REMARK  203  A    between atoms: _472  and  _473
REMARK  204  A    between atoms: _473  and  _474
REMARK  205  A    between atoms: _474  and  _475
REMARK  206  A    between atoms: _479  and  _481
REMARK  207  A    between atoms: _481  and  _482
REMARK  208  A    between atoms: _481  and  _484
REMARK  209  A    between atoms: _484  and  _485
REMARK  210  A    between atoms: _490  and  _492
REMARK  211  A    between atoms: _492  and  _493
REMARK  212  A    between atoms: _492  and  _495
REMARK  213  A    between atoms: _495  and  _496
REMARK  214  A    between atoms: _506  and  _508
REMARK  215  A    between atoms: _508  and  _509
REMARK  216  A    between atoms: _508  and  _511
REMARK  217  A    between atoms: _511  and  _512
REMARK  218  A    between atoms: _512  and  _513
REMARK  219  A    between atoms: _516  and  _518
REMARK  220  A    between atoms: _518  and  _519
REMARK  221  A    between atoms: _518  and  _521
REMARK  222  A    between atoms: _521  and  _522
REMARK  223  A    between atoms: _524  and  _526
REMARK  224  A    between atoms: _526  and  _527
REMARK  225  A    between atoms: _526  and  _529
REMARK  226  A    between atoms: _529  and  _530
REMARK  227  A    between atoms: _536  and  _538
REMARK  228  A    between atoms: _538  and  _539
REMARK  229  A    between atoms: _538  and  _541
REMARK  230  A    between atoms: _541  and  _542
REMARK  231  A    between atoms: _545  and  _547
REMARK  232  A    between atoms: _547  and  _548
REMARK  233  A    between atoms: _547  and  _550
REMARK  234  A    between atoms: _553  and  _555
REMARK  235  A    between atoms: _555  and  _556
REMARK  236  A    between atoms: _558  and  _560
REMARK  237  A    between atoms: _560  and  _561
REMARK  238  A    between atoms: _560  and  _563
REMARK  239  A    between atoms: _563  and  _564
REMARK  240  A    between atoms: _567  and  _569
REMARK  241  A    between atoms: _569  and  _570
REMARK  242  A    between atoms: _569  and  _572
REMARK  243  A    between atoms: _572  and  _573
REMARK  244  A    between atoms: _573  and  _574
REMARK  245  A    between atoms: _574  and  _575
REMARK  246  A    between atoms: _575  and  _576
REMARK  247  A    between atoms: _580  and  _582
REMARK  248  A    between atoms: _582  and  _583
REMARK  249  A    between atoms: _582  and  _585
REMARK                            x       y       z     vdW  Elec       q    Type
REMARK                         _______ _______ _______ _____ _____    ______ ____
ROOT
ATOM      1  O   HOH     1      12.479 -13.736 -27.964  0.00  0.00    +0.000 OA
ENDROOT
TORSDOF 0
REMARK  Name = ../refined-set-2016/4o05/4o05_pocket.pdb
REMARK  249 active torsions:
REMARK  status: ('A' for Active; 'I' for Inactive)
REMARK    1  A    between atoms: _1  and  _3
REMARK    2  A    between atoms: _3  and  _4
REMARK    3  A    between atoms: _3  and  _6
REMARK    4  A    between atoms: _6  and  _7
REMARK    5  A    between atoms: _13  and  _15
REMARK    6  A    between atoms: _15  and  _16
REMARK    7  A    between atoms: _15  and  _18
REMARK    8  A    between atoms: _18  and  _19
REMARK    9  A    between atoms: _19  and  _20
REMARK   10  A    between atoms: _25  and  _27
REMARK   11  A    between atoms: _27  and  _28
REMARK   12  A    between atoms: _27  and  _30
REMARK   13  A    between atoms: _30  and  _31
REMARK   14  A    between atoms: _34  and  _36
REMARK   15  A    between atoms: _36  and  _37
REMARK   16  A    between atoms: _36  and  _39
REMARK   17  A    between atoms: _39  and  _40
REMARK   18  A    between atoms: _40  and  _41
REMARK   19  A    between atoms: _44  and  _46
REMARK   20  A    between atoms: _46  and  _47
REMARK   21  A    between atoms: _46  and  _49
REMARK   22  A    between atoms: _49  and  _50
REMARK   23  A    between atoms: _53  and  _55
REMARK   24  A    between atoms: _55  and  _56
REMARK   25  A    between atoms: _55  and  _58
REMARK   26  A    between atoms: _58  and  _59
REMARK   27  A    between atoms: _62  and  _64
REMARK   28  A    between atoms: _64  and  _65
REMARK   29  A    between atoms: _64  and  _67
REMARK   30  A    between atoms: _67  and  _68
REMARK   31  A    between atoms: _70  and  _72
REMARK   32  A    between atoms: _72  and  _73
REMARK   33  A    between atoms: _72  and  _75
REMARK   34  A    between atoms: _75  and  _76
REMARK   35  A    between atoms: _81  and  _83
REMARK   36  A    between atoms: _83  and  _84
REMARK   37  A    between atoms: _83  and  _86
REMARK   38  A    between atoms: _86  and  _87
REMARK   39  A    between atoms: _89  and  _91
REMARK   40  A    between atoms: _91  and  _92
REMARK   41  A    between atoms: _91  and  _94
REMARK   42  A    between atoms: _94  and  _95
REMARK   43  A    between atoms: _97  and  _99
REMARK   44  A    between atoms: _99  and  _100
REMARK   45  A    between atoms: _99  and  _102
REMARK   46  A    between atoms: _102  and  _103
REMARK   47  A    between atoms: _106  and  _108
REMARK   48  A    between atoms: _108  and  _109
REMARK   49  A    between atoms: _112  and  _114
REMARK   50  A    between atoms: _114  and  _115
REMARK   51  A    between atoms: _114  and  _117
REMARK   52  A    between atoms: _117  and  _118
REMARK   53  A    between atoms: _121  and  _123
REMARK   54  A    between atoms: _123  and  _124
REMARK   55  A    between atoms: _123  and  _126
REMARK   56  A    between atoms: _126  and  _127
REMARK   57  A    between atoms: _127  and  _128
REMARK   58  A    between atoms: _128  and  _129
REMARK   59  A    between atoms: _129  and  _130
REMARK   60  A    between atoms: _134  and  _136
REMARK   61  A    between atoms: _136  and  _137
REMARK   62  A    between atoms: _136  and  _139
REMARK   63  A    between atoms: _139  and  _140
REMARK   64  A    between atoms: _143  and  _145
REMARK   65  A    between atoms: _145  and  _146
REMARK   66  A    between atoms: _145  and  _148
REMARK   67  A    between atoms: _148  and  _149
REMARK   68  A    between atoms: _152  and  _154
REMARK   69  A    between atoms: _154  and  _155
REMARK   70  A    between atoms: _154  and  _157
REMARK   71  A    between atoms: _160  and  _162
REMARK   72  A    between atoms: _162  and  _163
REMARK   73  A    between atoms: _162  and  _165
REMARK   74  A    between atoms: _165  and  _166
REMARK   75  A    between atoms: _169  and  _171
REMARK   76  A    between atoms: _171  and  _172
REMARK   77  A    between atoms: _171  and  _174
REMARK   78  A    between atoms: _174  and  _175
REMARK   79  A    between atoms: _178  and  _180
REMARK   80  A    between atoms: _180  and  _181
REMARK   81  A    between atoms: _183  and  _185
REMARK   82  A    between atoms: _185  and  _186
REMARK   83  A    between atoms: _185  and  _188
REMARK   84  A    between atoms: _188  and  _189
REMARK   85  A    between atoms: _192  and  _194
REMARK   86  A    between atoms: _194  and  _195
REMARK   87  A    between atoms: _197  and  _199
REMARK   88  A    between atoms: _199  and  _200
REMARK   89  A    between atoms: _199  and  _202
REMARK   90  A    between atoms: _202  and  _203
REMARK   91  A    between atoms: _203  and  _204
REMARK   92  A    between atoms: _206  and  _208
REMARK   93  A    between atoms: _208  and  _209
REMARK   94  A    between atoms: _208  and  _211
REMARK   95  A    between atoms: _211  and  _212
REMARK   96  A    between atoms: _215  and  _217
REMARK   97  A    between atoms: _217  and  _218
REMARK   98  A    between atoms: _217  and  _220
REMARK   99  A    between atoms: _220  and  _221
REMARK  100  A    between atoms: _221  and  _222
REMARK  101  A    between atoms: _222  and  _223
REMARK  102  A    between atoms: _223  and  _224
REMARK  103  A    between atoms: _228  and  _230
REMARK  104  A    between atoms: _230  and  _231
REMARK  105  A    between atoms: _234  and  _236
REMARK  106  A    between atoms: _236  and  _237
REMARK  107  A    between atoms: _236  and  _239
REMARK  108  A    between atoms: _239  and  _240
REMARK  109  A    between atoms: _243  and  _245
REMARK  110  A    between atoms: _245  and  _246
REMARK  111  A    between atoms: _245  and  _248
REMARK  112  A    between atoms: _248  and  _249
REMARK  113  A    between atoms: _252  and  _254
REMARK  114  A    between atoms: _254  and  _255
REMARK  115  A    between atoms: _254  and  _257
REMARK  116  A    between atoms: _257  and  _258
REMARK  117  A    between atoms: _261  and  _263
REMARK  118  A    between atoms: _263  and  _264
REMARK  119  A    between atoms: _263  and  _266
REMARK  120  A    between atoms: _266  and  _267
REMARK  121  A    between atoms: _272  and  _274
REMARK  122  A    between atoms: _274  and  _275
REMARK  123  A    between atoms: _274  and  _277
REMARK  124  A    between atoms: _277  and  _278
REMARK  125  A    between atoms: _283  and  _285
REMARK  126  A    between atoms: _285  and  _286
REMARK  127  A    between atoms: _285  and  _288
REMARK  128  A    between atoms: _288  and  _289
REMARK  129  A    between atoms: _292  and  _294
REMARK  130  A    between atoms: _294  and  _295
REMARK  131  A    between atoms: _297  and  _299
REMARK  132  A    between atoms: _299  and  _300
REMARK  133  A    between atoms: _299  and  _302
REMARK  134  A    between atoms: _302  and  _303
REMARK  135  A    between atoms: _306  and  _308
REMARK  136  A    between atoms: _308  and  _309
REMARK  137  A    between atoms: _308  and  _311
REMARK  138  A    between atoms: _311  and  _312
REMARK  139  A    between atoms: _315  and  _317
REMARK  140  A    between atoms: _317  and  _318
REMARK  141  A    between atoms: _321  and  _323
REMARK  142  A    between atoms: _323  and  _324
REMARK  143  A    between atoms: _323  and  _326
REMARK  144  A    between atoms: _326  and  _327
REMARK  145  A    between atoms: _327  and  _328
REMARK  146  A    between atoms: _328  and  _329
REMARK  147  A    between atoms: _329  and  _330
REMARK  148  A    between atoms: _334  and  _336
REMARK  149  A    between atoms: _336  and  _337
REMARK  150  A    between atoms: _339  and  _341
REMARK  151  A    between atoms: _341  and  _342
REMARK  152  A    between atoms: _341  and  _344
REMARK  153  A    between atoms: _344  and  _345
REMARK  154  A    between atoms: _348  and  _350
REMARK  155  A    between atoms: _350  and  _351
REMARK  156  A    between atoms: _353  and  _355
REMARK  157  A    between atoms: _355  and  _356
REMARK  158  A    between atoms: _355  and  _358
REMARK  159  A    between atoms: _358  and  _359
REMARK  160  A    between atoms: _365  and  _367
REMARK  161  A    between atoms: _367  and  _368
REMARK  162  A    between atoms: _370  and  _372
REMARK  163  A    between atoms: _372  and  _373
REMARK  164  A    between atoms: _372  and  _375
REMARK  165  A    between atoms: _378  and  _380
REMARK  166  A    between atoms: _380  and  _381
REMARK  167  A    between atoms: _383  and  _385
REMARK  168  A    between atoms: _385  and  _386
REMARK  169  A    between atoms: _385  and  _388
REMARK  170  A    between atoms: _388  and  _389
REMARK  171  A    between atoms: _395  and  _397
REMARK  172  A    between atoms: _397  and  _398
REMARK  173  A    between atoms: _397  and  _400
REMARK  174  A    between atoms: _400  and  _401
REMARK  175  A    between atoms: _406  and  _407
REMARK  176  A    between atoms: _409  and  _411
REMARK  177  A    between atoms: _411  and  _412
REMARK  178  A    between atoms: _411  and  _414
REMARK  179  A    between atoms: _414  and  _415
REMARK  180  A    between atoms: _420  and  _421
REMARK  181  A    between atoms: _423  and  _425
REMARK  182  A    between atoms: _425  and  _426
REMARK  183  A    between atoms: _425  and  _428
REMARK  184  A    between atoms: _431  and  _433
REMARK  185  A    between atoms: _433  and  _434
REMARK  186  A    between atoms: _433  and  _436
REMARK  187  A    between atoms: _436  and  _437
REMARK  188  A    between atoms: _440  and  _442
REMARK  189  A    between atoms: _442  and  _443
REMARK  190  A    between atoms: _442  and  _445
REMARK  191  A    between atoms: _448  and  _450
REMARK  192  A    between atoms: _450  and  _451
REMARK  193  A    between atoms: _450  and  _453
REMARK  194  A    between atoms: _453  and  _454
REMARK  195  A    between atoms: _457  and  _459
REMARK  196  A    between atoms: _459  and  _460
REMARK  197  A    between atoms: _459  and  _462
REMARK  198  A    between atoms: _462  and  _463
REMARK  199  A    between atoms: _466  and  _468
REMARK  200  A    between atoms: _468  and  _469
REMARK  201  A    between atoms: _468  and  _471
REMARK  202  A    between atoms: _471  and  _472
REMARK  203  A    between atoms: _472  and  _473
REMARK  204  A    between atoms: _473  and  _474
REMARK  205  A    between atoms: _474  and  _475
REMARK  206  A    between atoms: _479  and  _481
REMARK  207  A    between atoms: _481  and  _482
REMARK  208  A    between atoms: _481  and  _484
REMARK  209  A    between atoms: _484  and  _485
REMARK  210  A    between atoms: _490  and  _492
REMARK  211  A    between atoms: _492  and  _493
REMARK  212  A    between atoms: _492  and  _495
REMARK  213  A    between atoms: _495  and  _496
REMARK  214  A    between atoms: _506  and  _508
REMARK  215  A    between atoms: _508  and  _509
REMARK  216  A    between atoms: _508  and  _511
REMARK  217  A    between atoms: _511  and  _512
REMARK  218  A    between atoms: _512  and  _513
REMARK  219  A    between atoms: _516  and  _518
REMARK  220  A    between atoms: _518  and  _519
REMARK  221  A    between atoms: _518  and  _521
REMARK  222  A    between atoms: _521  and  _522
REMARK  223  A    between atoms: _524  and  _526
REMARK  224  A    between atoms: _526  and  _527
REMARK  225  A    between atoms: _526  and  _529
REMARK  226  A    between atoms: _529  and  _530
REMARK  227  A    between atoms: _536  and  _538
REMARK  228  A    between atoms: _538  and  _539
REMARK  229  A    between atoms: _538  and  _541
REMARK  230  A    between atoms: _541  and  _542
REMARK  231  A    between atoms: _545  and  _547
REMARK  232  A    between atoms: _547  and  _548
REMARK  233  A    between atoms: _547  and  _550
REMARK  234  A    between atoms: _553  and  _555
REMARK  235  A    between atoms: _555  and  _556
REMARK  236  A    between atoms: _558  and  _560
REMARK  237  A    between atoms: _560  and  _561
REMARK  238  A    between atoms: _560  and  _563
REMARK  239  A    between atoms: _563  and  _564
REMARK  240  A    between atoms: _567  and  _569
REMARK  241  A    between atoms: _569  and  _570
REMARK  242  A    between atoms: _569  and  _572
REMARK  243  A    between atoms: _572  and  _573
REMARK  244  A    between atoms: _573  and  _574
REMARK  245  A    between atoms: _574  and  _575
REMARK  246  A    between atoms: _575  and  _576
REMARK  247  A    between atoms: _580  and  _582
REMARK  248  A    between atoms: _582  and  _583
REMARK  249  A    between atoms: _582  and  _585
REMARK                            x       y       z     vdW  Elec       q    Type
REMARK                         _______ _______ _______ _____ _____    ______ ____
ROOT
ATOM      1  O   HOH     1      -2.048  -1.479 -25.145  0.00  0.00    +0.000 OA
ENDROOT
TORSDOF 0
REMARK  Name = ../refined-set-2016/4o05/4o05_pocket.pdb
REMARK  249 active torsions:
REMARK  status: ('A' for Active; 'I' for Inactive)
REMARK    1  A    between atoms: _1  and  _3
REMARK    2  A    between atoms: _3  and  _4
REMARK    3  A    between atoms: _3  and  _6
REMARK    4  A    between atoms: _6  and  _7
REMARK    5  A    between atoms: _13  and  _15
REMARK    6  A    between atoms: _15  and  _16
REMARK    7  A    between atoms: _15  and  _18
REMARK    8  A    between atoms: _18  and  _19
REMARK    9  A    between atoms: _19  and  _20
REMARK   10  A    between atoms: _25  and  _27
REMARK   11  A    between atoms: _27  and  _28
REMARK   12  A    between atoms: _27  and  _30
REMARK   13  A    between atoms: _30  and  _31
REMARK   14  A    between atoms: _34  and  _36
REMARK   15  A    between atoms: _36  and  _37
REMARK   16  A    between atoms: _36  and  _39
REMARK   17  A    between atoms: _39  and  _40
REMARK   18  A    between atoms: _40  and  _41
REMARK   19  A    between atoms: _44  and  _46
REMARK   20  A    between atoms: _46  and  _47
REMARK   21  A    between atoms: _46  and  _49
REMARK   22  A    between atoms: _49  and  _50
REMARK   23  A    between atoms: _53  and  _55
REMARK   24  A    between atoms: _55  and  _56
REMARK   25  A    between atoms: _55  and  _58
REMARK   26  A    between atoms: _58  and  _59
REMARK   27  A    between atoms: _62  and  _64
REMARK   28  A    between atoms: _64  and  _65
REMARK   29  A    between atoms: _64  and  _67
REMARK   30  A    between atoms: _67  and  _68
REMARK   31  A    between atoms: _70  and  _72
REMARK   32  A    between atoms: _72  and  _73
REMARK   33  A    between atoms: _72  and  _75
REMARK   34  A    between atoms: _75  and  _76
REMARK   35  A    between atoms: _81  and  _83
REMARK   36  A    between atoms: _83  and  _84
REMARK   37  A    between atoms: _83  and  _86
REMARK   38  A    between atoms: _86  and  _87
REMARK   39  A    between atoms: _89  and  _91
REMARK   40  A    between atoms: _91  and  _92
REMARK   41  A    between atoms: _91  and  _94
REMARK   42  A    between atoms: _94  and  _95
REMARK   43  A    between atoms: _97  and  _99
REMARK   44  A    between atoms: _99  and  _100
REMARK   45  A    between atoms: _99  and  _102
REMARK   46  A    between atoms: _102  and  _103
REMARK   47  A    between atoms: _106  and  _108
REMARK   48  A    between atoms: _108  and  _109
REMARK   49  A    between atoms: _112  and  _114
REMARK   50  A    between atoms: _114  and  _115
REMARK   51  A    between atoms: _114  and  _117
REMARK   52  A    between atoms: _117  and  _118
REMARK   53  A    between atoms: _121  and  _123
REMARK   54  A    between atoms: _123  and  _124
REMARK   55  A    between atoms: _123  and  _126
REMARK   56  A    between atoms: _126  and  _127
REMARK   57  A    between atoms: _127  and  _128
REMARK   58  A    between atoms: _128  and  _129
REMARK   59  A    between atoms: _129  and  _130
REMARK   60  A    between atoms: _134  and  _136
REMARK   61  A    between atoms: _136  and  _137
REMARK   62  A    between atoms: _136  and  _139
REMARK   63  A    between atoms: _139  and  _140
REMARK   64  A    between atoms: _143  and  _145
REMARK   65  A    between atoms: _145  and  _146
REMARK   66  A    between atoms: _145  and  _148
REMARK   67  A    between atoms: _148  and  _149
REMARK   68  A    between atoms: _152  and  _154
REMARK   69  A    between atoms: _154  and  _155
REMARK   70  A    between atoms: _154  and  _157
REMARK   71  A    between atoms: _160  and  _162
REMARK   72  A    between atoms: _162  and  _163
REMARK   73  A    between atoms: _162  and  _165
REMARK   74  A    between atoms: _165  and  _166
REMARK   75  A    between atoms: _169  and  _171
REMARK   76  A    between atoms: _171  and  _172
REMARK   77  A    between atoms: _171  and  _174
REMARK   78  A    between atoms: _174  and  _175
REMARK   79  A    between atoms: _178  and  _180
REMARK   80  A    between atoms: _180  and  _181
REMARK   81  A    between atoms: _183  and  _185
REMARK   82  A    between atoms: _185  and  _186
REMARK   83  A    between atoms: _185  and  _188
REMARK   84  A    between atoms: _188  and  _189
REMARK   85  A    between atoms: _192  and  _194
REMARK   86  A    between atoms: _194  and  _195
REMARK   87  A    between atoms: _197  and  _199
REMARK   88  A    between atoms: _199  and  _200
REMARK   89  A    between atoms: _199  and  _202
REMARK   90  A    between atoms: _202  and  _203
REMARK   91  A    between atoms: _203  and  _204
REMARK   92  A    between atoms: _206  and  _208
REMARK   93  A    between atoms: _208  and  _209
REMARK   94  A    between atoms: _208  and  _211
REMARK   95  A    between atoms: _211  and  _212
REMARK   96  A    between atoms: _215  and  _217
REMARK   97  A    between atoms: _217  and  _218
REMARK   98  A    between atoms: _217  and  _220
REMARK   99  A    between atoms: _220  and  _221
REMARK  100  A    between atoms: _221  and  _222
REMARK  101  A    between atoms: _222  and  _223
REMARK  102  A    between atoms: _223  and  _224
REMARK  103  A    between atoms: _228  and  _230
REMARK  104  A    between atoms: _230  and  _231
REMARK  105  A    between atoms: _234  and  _236
REMARK  106  A    between atoms: _236  and  _237
REMARK  107  A    between atoms: _236  and  _239
REMARK  108  A    between atoms: _239  and  _240
REMARK  109  A    between atoms: _243  and  _245
REMARK  110  A    between atoms: _245  and  _246
REMARK  111  A    between atoms: _245  and  _248
REMARK  112  A    between atoms: _248  and  _249
REMARK  113  A    between atoms: _252  and  _254
REMARK  114  A    between atoms: _254  and  _255
REMARK  115  A    between atoms: _254  and  _257
REMARK  116  A    between atoms: _257  and  _258
REMARK  117  A    between atoms: _261  and  _263
REMARK  118  A    between atoms: _263  and  _264
REMARK  119  A    between atoms: _263  and  _266
REMARK  120  A    between atoms: _266  and  _267
REMARK  121  A    between atoms: _272  and  _274
REMARK  122  A    between atoms: _274  and  _275
REMARK  123  A    between atoms: _274  and  _277
REMARK  124  A    between atoms: _277  and  _278
REMARK  125  A    between atoms: _283  and  _285
REMARK  126  A    between atoms: _285  and  _286
REMARK  127  A    between atoms: _285  and  _288
REMARK  128  A    between atoms: _288  and  _289
REMARK  129  A    between atoms: _292  and  _294
REMARK  130  A    between atoms: _294  and  _295
REMARK  131  A    between atoms: _297  and  _299
REMARK  132  A    between atoms: _299  and  _300
REMARK  133  A    between atoms: _299  and  _302
REMARK  134  A    between atoms: _302  and  _303
REMARK  135  A    between atoms: _306  and  _308
REMARK  136  A    between atoms: _308  and  _309
REMARK  137  A    between atoms: _308  and  _311
REMARK  138  A    between atoms: _311  and  _312
REMARK  139  A    between atoms: _315  and  _317
REMARK  140  A    between atoms: _317  and  _318
REMARK  141  A    between atoms: _321  and  _323
REMARK  142  A    between atoms: _323  and  _324
REMARK  143  A    between atoms: _323  and  _326
REMARK  144  A    between atoms: _326  and  _327
REMARK  145  A    between atoms: _327  and  _328
REMARK  146  A    between atoms: _328  and  _329
REMARK  147  A    between atoms: _329  and  _330
REMARK  148  A    between atoms: _334  and  _336
REMARK  149  A    between atoms: _336  and  _337
REMARK  150  A    between atoms: _339  and  _341
REMARK  151  A    between atoms: _341  and  _342
REMARK  152  A    between atoms: _341  and  _344
REMARK  153  A    between atoms: _344  and  _345
REMARK  154  A    between atoms: _348  and  _350
REMARK  155  A    between atoms: _350  and  _351
REMARK  156  A    between atoms: _353  and  _355
REMARK  157  A    between atoms: _355  and  _356
REMARK  158  A    between atoms: _355  and  _358
REMARK  159  A    between atoms: _358  and  _359
REMARK  160  A    between atoms: _365  and  _367
REMARK  161  A    between atoms: _367  and  _368
REMARK  162  A    between atoms: _370  and  _372
REMARK  163  A    between atoms: _372  and  _373
REMARK  164  A    between atoms: _372  and  _375
REMARK  165  A    between atoms: _378  and  _380
REMARK  166  A    between atoms: _380  and  _381
REMARK  167  A    between atoms: _383  and  _385
REMARK  168  A    between atoms: _385  and  _386
REMARK  169  A    between atoms: _385  and  _388
REMARK  170  A    between atoms: _388  and  _389
REMARK  171  A    between atoms: _395  and  _397
REMARK  172  A    between atoms: _397  and  _398
REMARK  173  A    between atoms: _397  and  _400
REMARK  174  A    between atoms: _400  and  _401
REMARK  175  A    between atoms: _406  and  _407
REMARK  176  A    between atoms: _409  and  _411
REMARK  177  A    between atoms: _411  and  _412
REMARK  178  A    between atoms: _411  and  _414
REMARK  179  A    between atoms: _414  and  _415
REMARK  180  A    between atoms: _420  and  _421
REMARK  181  A    between atoms: _423  and  _425
REMARK  182  A    between atoms: _425  and  _426
REMARK  183  A    between atoms: _425  and  _428
REMARK  184  A    between atoms: _431  and  _433
REMARK  185  A    between atoms: _433  and  _434
REMARK  186  A    between atoms: _433  and  _436
REMARK  187  A    between atoms: _436  and  _437
REMARK  188  A    between atoms: _440  and  _442
REMARK  189  A    between atoms: _442  and  _443
REMARK  190  A    between atoms: _442  and  _445
REMARK  191  A    between atoms: _448  and  _450
REMARK  192  A    between atoms: _450  and  _451
REMARK  193  A    between atoms: _450  and  _453
REMARK  194  A    between atoms: _453  and  _454
REMARK  195  A    between atoms: _457  and  _459
REMARK  196  A    between atoms: _459  and  _460
REMARK  197  A    between atoms: _459  and  _462
REMARK  198  A    between atoms: _462  and  _463
REMARK  199  A    between atoms: _466  and  _468
REMARK  200  A    between atoms: _468  and  _469
REMARK  201  A    between atoms: _468  and  _471
REMARK  202  A    between atoms: _471  and  _472
REMARK  203  A    between atoms: _472  and  _473
REMARK  204  A    between atoms: _473  and  _474
REMARK  205  A    between atoms: _474  and  _475
REMARK  206  A    between atoms: _479  and  _481
REMARK  207  A    between atoms: _481  and  _482
REMARK  208  A    between atoms: _481  and  _484
REMARK  209  A    between atoms: _484  and  _485
REMARK  210  A    between atoms: _490  and  _492
REMARK  211  A    between atoms: _492  and  _493
REMARK  212  A    between atoms: _492  and  _495
REMARK  213  A    between atoms: _495  and  _496
REMARK  214  A    between atoms: _506  and  _508
REMARK  215  A    between atoms: _508  and  _509
REMARK  216  A    between atoms: _508  and  _511
REMARK  217  A    between atoms: _511  and  _512
REMARK  218  A    between atoms: _512  and  _513
REMARK  219  A    between atoms: _516  and  _518
REMARK  220  A    between atoms: _518  and  _519
REMARK  221  A    between atoms: _518  and  _521
REMARK  222  A    between atoms: _521  and  _522
REMARK  223  A    between atoms: _524  and  _526
REMARK  224  A    between atoms: _526  and  _527
REMARK  225  A    between atoms: _526  and  _529
REMARK  226  A    between atoms: _529  and  _530
REMARK  227  A    between atoms: _536  and  _538
REMARK  228  A    between atoms: _538  and  _539
REMARK  229  A    between atoms: _538  and  _541
REMARK  230  A    between atoms: _541  and  _542
REMARK  231  A    between atoms: _545  and  _547
REMARK  232  A    between atoms: _547  and  _548
REMARK  233  A    between atoms: _547  and  _550
REMARK  234  A    between atoms: _553  and  _555
REMARK  235  A    between atoms: _555  and  _556
REMARK  236  A    between atoms: _558  and  _560
REMARK  237  A    between atoms: _560  and  _561
REMARK  238  A    between atoms: _560  and  _563
REMARK  239  A    between atoms: _563  and  _564
REMARK  240  A    between atoms: _567  and  _569
REMARK  241  A    between atoms: _569  and  _570
REMARK  242  A    between atoms: _569  and  _572
REMARK  243  A    between atoms: _572  and  _573
REMARK  244  A    between atoms: _573  and  _574
REMARK  245  A    between atoms: _574  and  _575
REMARK  246  A    between atoms: _575  and  _576
REMARK  247  A    between atoms: _580  and  _582
REMARK  248  A    between atoms: _582  and  _583
REMARK  249  A    between atoms: _582  and  _585
REMARK                            x       y       z     vdW  Elec       q    Type
REMARK                         _______ _______ _______ _____ _____    ______ ____
ROOT
ATOM      1  O   HOH     1      14.491 -11.984 -28.462  0.00  0.00    +0.000 OA
ENDROOT
TORSDOF 0
REMARK  Name = ../refined-set-2016/4o05/4o05_pocket.pdb
REMARK  249 active torsions:
REMARK  status: ('A' for Active; 'I' for Inactive)
REMARK    1  A    between atoms: _1  and  _3
REMARK    2  A    between atoms: _3  and  _4
REMARK    3  A    between atoms: _3  and  _6
REMARK    4  A    between atoms: _6  and  _7
REMARK    5  A    between atoms: _13  and  _15
REMARK    6  A    between atoms: _15  and  _16
REMARK    7  A    between atoms: _15  and  _18
REMARK    8  A    between atoms: _18  and  _19
REMARK    9  A    between atoms: _19  and  _20
REMARK   10  A    between atoms: _25  and  _27
REMARK   11  A    between atoms: _27  and  _28
REMARK   12  A    between atoms: _27  and  _30
REMARK   13  A    between atoms: _30  and  _31
REMARK   14  A    between atoms: _34  and  _36
REMARK   15  A    between atoms: _36  and  _37
REMARK   16  A    between atoms: _36  and  _39
REMARK   17  A    between atoms: _39  and  _40
REMARK   18  A    between atoms: _40  and  _41
REMARK   19  A    between atoms: _44  and  _46
REMARK   20  A    between atoms: _46  and  _47
REMARK   21  A    between atoms: _46  and  _49
REMARK   22  A    between atoms: _49  and  _50
REMARK   23  A    between atoms: _53  and  _55
REMARK   24  A    between atoms: _55  and  _56
REMARK   25  A    between atoms: _55  and  _58
REMARK   26  A    between atoms: _58  and  _59
REMARK   27  A    between atoms: _62  and  _64
REMARK   28  A    between atoms: _64  and  _65
REMARK   29  A    between atoms: _64  and  _67
REMARK   30  A    between atoms: _67  and  _68
REMARK   31  A    between atoms: _70  and  _72
REMARK   32  A    between atoms: _72  and  _73
REMARK   33  A    between atoms: _72  and  _75
REMARK   34  A    between atoms: _75  and  _76
REMARK   35  A    between atoms: _81  and  _83
REMARK   36  A    between atoms: _83  and  _84
REMARK   37  A    between atoms: _83  and  _86
REMARK   38  A    between atoms: _86  and  _87
REMARK   39  A    between atoms: _89  and  _91
REMARK   40  A    between atoms: _91  and  _92
REMARK   41  A    between atoms: _91  and  _94
REMARK   42  A    between atoms: _94  and  _95
REMARK   43  A    between atoms: _97  and  _99
REMARK   44  A    between atoms: _99  and  _100
REMARK   45  A    between atoms: _99  and  _102
REMARK   46  A    between atoms: _102  and  _103
REMARK   47  A    between atoms: _106  and  _108
REMARK   48  A    between atoms: _108  and  _109
REMARK   49  A    between atoms: _112  and  _114
REMARK   50  A    between atoms: _114  and  _115
REMARK   51  A    between atoms: _114  and  _117
REMARK   52  A    between atoms: _117  and  _118
REMARK   53  A    between atoms: _121  and  _123
REMARK   54  A    between atoms: _123  and  _124
REMARK   55  A    between atoms: _123  and  _126
REMARK   56  A    between atoms: _126  and  _127
REMARK   57  A    between atoms: _127  and  _128
REMARK   58  A    between atoms: _128  and  _129
REMARK   59  A    between atoms: _129  and  _130
REMARK   60  A    between atoms: _134  and  _136
REMARK   61  A    between atoms: _136  and  _137
REMARK   62  A    between atoms: _136  and  _139
REMARK   63  A    between atoms: _139  and  _140
REMARK   64  A    between atoms: _143  and  _145
REMARK   65  A    between atoms: _145  and  _146
REMARK   66  A    between atoms: _145  and  _148
REMARK   67  A    between atoms: _148  and  _149
REMARK   68  A    between atoms: _152  and  _154
REMARK   69  A    between atoms: _154  and  _155
REMARK   70  A    between atoms: _154  and  _157
REMARK   71  A    between atoms: _160  and  _162
REMARK   72  A    between atoms: _162  and  _163
REMARK   73  A    between atoms: _162  and  _165
REMARK   74  A    between atoms: _165  and  _166
REMARK   75  A    between atoms: _169  and  _171
REMARK   76  A    between atoms: _171  and  _172
REMARK   77  A    between atoms: _171  and  _174
REMARK   78  A    between atoms: _174  and  _175
REMARK   79  A    between atoms: _178  and  _180
REMARK   80  A    between atoms: _180  and  _181
REMARK   81  A    between atoms: _183  and  _185
REMARK   82  A    between atoms: _185  and  _186
REMARK   83  A    between atoms: _185  and  _188
REMARK   84  A    between atoms: _188  and  _189
REMARK   85  A    between atoms: _192  and  _194
REMARK   86  A    between atoms: _194  and  _195
REMARK   87  A    between atoms: _197  and  _199
REMARK   88  A    between atoms: _199  and  _200
REMARK   89  A    between atoms: _199  and  _202
REMARK   90  A    between atoms: _202  and  _203
REMARK   91  A    between atoms: _203  and  _204
REMARK   92  A    between atoms: _206  and  _208
REMARK   93  A    between atoms: _208  and  _209
REMARK   94  A    between atoms: _208  and  _211
REMARK   95  A    between atoms: _211  and  _212
REMARK   96  A    between atoms: _215  and  _217
REMARK   97  A    between atoms: _217  and  _218
REMARK   98  A    between atoms: _217  and  _220
REMARK   99  A    between atoms: _220  and  _221
REMARK  100  A    between atoms: _221  and  _222
REMARK  101  A    between atoms: _222  and  _223
REMARK  102  A    between atoms: _223  and  _224
REMARK  103  A    between atoms: _228  and  _230
REMARK  104  A    between atoms: _230  and  _231
REMARK  105  A    between atoms: _234  and  _236
REMARK  106  A    between atoms: _236  and  _237
REMARK  107  A    between atoms: _236  and  _239
REMARK  108  A    between atoms: _239  and  _240
REMARK  109  A    between atoms: _243  and  _245
REMARK  110  A    between atoms: _245  and  _246
REMARK  111  A    between atoms: _245  and  _248
REMARK  112  A    between atoms: _248  and  _249
REMARK  113  A    between atoms: _252  and  _254
REMARK  114  A    between atoms: _254  and  _255
REMARK  115  A    between atoms: _254  and  _257
REMARK  116  A    between atoms: _257  and  _258
REMARK  117  A    between atoms: _261  and  _263
REMARK  118  A    between atoms: _263  and  _264
REMARK  119  A    between atoms: _263  and  _266
REMARK  120  A    between atoms: _266  and  _267
REMARK  121  A    between atoms: _272  and  _274
REMARK  122  A    between atoms: _274  and  _275
REMARK  123  A    between atoms: _274  and  _277
REMARK  124  A    between atoms: _277  and  _278
REMARK  125  A    between atoms: _283  and  _285
REMARK  126  A    between atoms: _285  and  _286
REMARK  127  A    between atoms: _285  and  _288
REMARK  128  A    between atoms: _288  and  _289
REMARK  129  A    between atoms: _292  and  _294
REMARK  130  A    between atoms: _294  and  _295
REMARK  131  A    between atoms: _297  and  _299
REMARK  132  A    between atoms: _299  and  _300
REMARK  133  A    between atoms: _299  and  _302
REMARK  134  A    between atoms: _302  and  _303
REMARK  135  A    between atoms: _306  and  _308
REMARK  136  A    between atoms: _308  and  _309
REMARK  137  A    between atoms: _308  and  _311
REMARK  138  A    between atoms: _311  and  _312
REMARK  139  A    between atoms: _315  and  _317
REMARK  140  A    between atoms: _317  and  _318
REMARK  141  A    between atoms: _321  and  _323
REMARK  142  A    between atoms: _323  and  _324
REMARK  143  A    between atoms: _323  and  _326
REMARK  144  A    between atoms: _326  and  _327
REMARK  145  A    between atoms: _327  and  _328
REMARK  146  A    between atoms: _328  and  _329
REMARK  147  A    between atoms: _329  and  _330
REMARK  148  A    between atoms: _334  and  _336
REMARK  149  A    between atoms: _336  and  _337
REMARK  150  A    between atoms: _339  and  _341
REMARK  151  A    between atoms: _341  and  _342
REMARK  152  A    between atoms: _341  and  _344
REMARK  153  A    between atoms: _344  and  _345
REMARK  154  A    between atoms: _348  and  _350
REMARK  155  A    between atoms: _350  and  _351
REMARK  156  A    between atoms: _353  and  _355
REMARK  157  A    between atoms: _355  and  _356
REMARK  158  A    between atoms: _355  and  _358
REMARK  159  A    between atoms: _358  and  _359
REMARK  160  A    between atoms: _365  and  _367
REMARK  161  A    between atoms: _367  and  _368
REMARK  162  A    between atoms: _370  and  _372
REMARK  163  A    between atoms: _372  and  _373
REMARK  164  A    between atoms: _372  and  _375
REMARK  165  A    between atoms: _378  and  _380
REMARK  166  A    between atoms: _380  and  _381
REMARK  167  A    between atoms: _383  and  _385
REMARK  168  A    between atoms: _385  and  _386
REMARK  169  A    between atoms: _385  and  _388
REMARK  170  A    between atoms: _388  and  _389
REMARK  171  A    between atoms: _395  and  _397
REMARK  172  A    between atoms: _397  and  _398
REMARK  173  A    between atoms: _397  and  _400
REMARK  174  A    between atoms: _400  and  _401
REMARK  175  A    between atoms: _406  and  _407
REMARK  176  A    between atoms: _409  and  _411
REMARK  177  A    between atoms: _411  and  _412
REMARK  178  A    between atoms: _411  and  _414
REMARK  179  A    between atoms: _414  and  _415
REMARK  180  A    between atoms: _420  and  _421
REMARK  181  A    between atoms: _423  and  _425
REMARK  182  A    between atoms: _425  and  _426
REMARK  183  A    between atoms: _425  and  _428
REMARK  184  A    between atoms: _431  and  _433
REMARK  185  A    between atoms: _433  and  _434
REMARK  186  A    between atoms: _433  and  _436
REMARK  187  A    between atoms: _436  and  _437
REMARK  188  A    between atoms: _440  and  _442
REMARK  189  A    between atoms: _442  and  _443
REMARK  190  A    between atoms: _442  and  _445
REMARK  191  A    between atoms: _448  and  _450
REMARK  192  A    between atoms: _450  and  _451
REMARK  193  A    between atoms: _450  and  _453
REMARK  194  A    between atoms: _453  and  _454
REMARK  195  A    between atoms: _457  and  _459
REMARK  196  A    between atoms: _459  and  _460
REMARK  197  A    between atoms: _459  and  _462
REMARK  198  A    between atoms: _462  and  _463
REMARK  199  A    between atoms: _466  and  _468
REMARK  200  A    between atoms: _468  and  _469
REMARK  201  A    between atoms: _468  and  _471
REMARK  202  A    between atoms: _471  and  _472
REMARK  203  A    between atoms: _472  and  _473
REMARK  204  A    between atoms: _473  and  _474
REMARK  205  A    between atoms: _474  and  _475
REMARK  206  A    between atoms: _479  and  _481
REMARK  207  A    between atoms: _481  and  _482
REMARK  208  A    between atoms: _481  and  _484
REMARK  209  A    between atoms: _484  and  _485
REMARK  210  A    between atoms: _490  and  _492
REMARK  211  A    between atoms: _492  and  _493
REMARK  212  A    between atoms: _492  and  _495
REMARK  213  A    between atoms: _495  and  _496
REMARK  214  A    between atoms: _506  and  _508
REMARK  215  A    between atoms: _508  and  _509
REMARK  216  A    between atoms: _508  and  _511
REMARK  217  A    between atoms: _511  and  _512
REMARK  218  A    between atoms: _512  and  _513
REMARK  219  A    between atoms: _516  and  _518
REMARK  220  A    between atoms: _518  and  _519
REMARK  221  A    between atoms: _518  and  _521
REMARK  222  A    between atoms: _521  and  _522
REMARK  223  A    between atoms: _524  and  _526
REMARK  224  A    between atoms: _526  and  _527
REMARK  225  A    between atoms: _526  and  _529
REMARK  226  A    between atoms: _529  and  _530
REMARK  227  A    between atoms: _536  and  _538
REMARK  228  A    between atoms: _538  and  _539
REMARK  229  A    between atoms: _538  and  _541
REMARK  230  A    between atoms: _541  and  _542
REMARK  231  A    between atoms: _545  and  _547
REMARK  232  A    between atoms: _547  and  _548
REMARK  233  A    between atoms: _547  and  _550
REMARK  234  A    between atoms: _553  and  _555
REMARK  235  A    between atoms: _555  and  _556
REMARK  236  A    between atoms: _558  and  _560
REMARK  237  A    between atoms: _560  and  _561
REMARK  238  A    between atoms: _560  and  _563
REMARK  239  A    between atoms: _563  and  _564
REMARK  240  A    between atoms: _567  and  _569
REMARK  241  A    between atoms: _569  and  _570
REMARK  242  A    between atoms: _569  and  _572
REMARK  243  A    between atoms: _572  and  _573
REMARK  244  A    between atoms: _573  and  _574
REMARK  245  A    between atoms: _574  and  _575
REMARK  246  A    between atoms: _575  and  _576
REMARK  247  A    between atoms: _580  and  _582
REMARK  248  A    between atoms: _582  and  _583
REMARK  249  A    between atoms: _582  and  _585
REMARK                            x       y       z     vdW  Elec       q    Type
REMARK                         _______ _______ _______ _____ _____    ______ ____
ROOT
ATOM      1  O   HOH     1       0.685  -5.519 -34.024  0.00  0.00    +0.000 OA
ENDROOT
TORSDOF 0
REMARK  Name = ../refined-set-2016/4o05/4o05_pocket.pdb
REMARK  249 active torsions:
REMARK  status: ('A' for Active; 'I' for Inactive)
REMARK    1  A    between atoms: _1  and  _3
REMARK    2  A    between atoms: _3  and  _4
REMARK    3  A    between atoms: _3  and  _6
REMARK    4  A    between atoms: _6  and  _7
REMARK    5  A    between atoms: _13  and  _15
REMARK    6  A    between atoms: _15  and  _16
REMARK    7  A    between atoms: _15  and  _18
REMARK    8  A    between atoms: _18  and  _19
REMARK    9  A    between atoms: _19  and  _20
REMARK   10  A    between atoms: _25  and  _27
REMARK   11  A    between atoms: _27  and  _28
REMARK   12  A    between atoms: _27  and  _30
REMARK   13  A    between atoms: _30  and  _31
REMARK   14  A    between atoms: _34  and  _36
REMARK   15  A    between atoms: _36  and  _37
REMARK   16  A    between atoms: _36  and  _39
REMARK   17  A    between atoms: _39  and  _40
REMARK   18  A    between atoms: _40  and  _41
REMARK   19  A    between atoms: _44  and  _46
REMARK   20  A    between atoms: _46  and  _47
REMARK   21  A    between atoms: _46  and  _49
REMARK   22  A    between atoms: _49  and  _50
REMARK   23  A    between atoms: _53  and  _55
REMARK   24  A    between atoms: _55  and  _56
REMARK   25  A    between atoms: _55  and  _58
REMARK   26  A    between atoms: _58  and  _59
REMARK   27  A    between atoms: _62  and  _64
REMARK   28  A    between atoms: _64  and  _65
REMARK   29  A    between atoms: _64  and  _67
REMARK   30  A    between atoms: _67  and  _68
REMARK   31  A    between atoms: _70  and  _72
REMARK   32  A    between atoms: _72  and  _73
REMARK   33  A    between atoms: _72  and  _75
REMARK   34  A    between atoms: _75  and  _76
REMARK   35  A    between atoms: _81  and  _83
REMARK   36  A    between atoms: _83  and  _84
REMARK   37  A    between atoms: _83  and  _86
REMARK   38  A    between atoms: _86  and  _87
REMARK   39  A    between atoms: _89  and  _91
REMARK   40  A    between atoms: _91  and  _92
REMARK   41  A    between atoms: _91  and  _94
REMARK   42  A    between atoms: _94  and  _95
REMARK   43  A    between atoms: _97  and  _99
REMARK   44  A    between atoms: _99  and  _100
REMARK   45  A    between atoms: _99  and  _102
REMARK   46  A    between atoms: _102  and  _103
REMARK   47  A    between atoms: _106  and  _108
REMARK   48  A    between atoms: _108  and  _109
REMARK   49  A    between atoms: _112  and  _114
REMARK   50  A    between atoms: _114  and  _115
REMARK   51  A    between atoms: _114  and  _117
REMARK   52  A    between atoms: _117  and  _118
REMARK   53  A    between atoms: _121  and  _123
REMARK   54  A    between atoms: _123  and  _124
REMARK   55  A    between atoms: _123  and  _126
REMARK   56  A    between atoms: _126  and  _127
REMARK   57  A    between atoms: _127  and  _128
REMARK   58  A    between atoms: _128  and  _129
REMARK   59  A    between atoms: _129  and  _130
REMARK   60  A    between atoms: _134  and  _136
REMARK   61  A    between atoms: _136  and  _137
REMARK   62  A    between atoms: _136  and  _139
REMARK   63  A    between atoms: _139  and  _140
REMARK   64  A    between atoms: _143  and  _145
REMARK   65  A    between atoms: _145  and  _146
REMARK   66  A    between atoms: _145  and  _148
REMARK   67  A    between atoms: _148  and  _149
REMARK   68  A    between atoms: _152  and  _154
REMARK   69  A    between atoms: _154  and  _155
REMARK   70  A    between atoms: _154  and  _157
REMARK   71  A    between atoms: _160  and  _162
REMARK   72  A    between atoms: _162  and  _163
REMARK   73  A    between atoms: _162  and  _165
REMARK   74  A    between atoms: _165  and  _166
REMARK   75  A    between atoms: _169  and  _171
REMARK   76  A    between atoms: _171  and  _172
REMARK   77  A    between atoms: _171  and  _174
REMARK   78  A    between atoms: _174  and  _175
REMARK   79  A    between atoms: _178  and  _180
REMARK   80  A    between atoms: _180  and  _181
REMARK   81  A    between atoms: _183  and  _185
REMARK   82  A    between atoms: _185  and  _186
REMARK   83  A    between atoms: _185  and  _188
REMARK   84  A    between atoms: _188  and  _189
REMARK   85  A    between atoms: _192  and  _194
REMARK   86  A    between atoms: _194  and  _195
REMARK   87  A    between atoms: _197  and  _199
REMARK   88  A    between atoms: _199  and  _200
REMARK   89  A    between atoms: _199  and  _202
REMARK   90  A    between atoms: _202  and  _203
REMARK   91  A    between atoms: _203  and  _204
REMARK   92  A    between atoms: _206  and  _208
REMARK   93  A    between atoms: _208  and  _209
REMARK   94  A    between atoms: _208  and  _211
REMARK   95  A    between atoms: _211  and  _212
REMARK   96  A    between atoms: _215  and  _217
REMARK   97  A    between atoms: _217  and  _218
REMARK   98  A    between atoms: _217  and  _220
REMARK   99  A    between atoms: _220  and  _221
REMARK  100  A    between atoms: _221  and  _222
REMARK  101  A    between atoms: _222  and  _223
REMARK  102  A    between atoms: _223  and  _224
REMARK  103  A    between atoms: _228  and  _230
REMARK  104  A    between atoms: _230  and  _231
REMARK  105  A    between atoms: _234  and  _236
REMARK  106  A    between atoms: _236  and  _237
REMARK  107  A    between atoms: _236  and  _239
REMARK  108  A    between atoms: _239  and  _240
REMARK  109  A    between atoms: _243  and  _245
REMARK  110  A    between atoms: _245  and  _246
REMARK  111  A    between atoms: _245  and  _248
REMARK  112  A    between atoms: _248  and  _249
REMARK  113  A    between atoms: _252  and  _254
REMARK  114  A    between atoms: _254  and  _255
REMARK  115  A    between atoms: _254  and  _257
REMARK  116  A    between atoms: _257  and  _258
REMARK  117  A    between atoms: _261  and  _263
REMARK  118  A    between atoms: _263  and  _264
REMARK  119  A    between atoms: _263  and  _266
REMARK  120  A    between atoms: _266  and  _267
REMARK  121  A    between atoms: _272  and  _274
REMARK  122  A    between atoms: _274  and  _275
REMARK  123  A    between atoms: _274  and  _277
REMARK  124  A    between atoms: _277  and  _278
REMARK  125  A    between atoms: _283  and  _285
REMARK  126  A    between atoms: _285  and  _286
REMARK  127  A    between atoms: _285  and  _288
REMARK  128  A    between atoms: _288  and  _289
REMARK  129  A    between atoms: _292  and  _294
REMARK  130  A    between atoms: _294  and  _295
REMARK  131  A    between atoms: _297  and  _299
REMARK  132  A    between atoms: _299  and  _300
REMARK  133  A    between atoms: _299  and  _302
REMARK  134  A    between atoms: _302  and  _303
REMARK  135  A    between atoms: _306  and  _308
REMARK  136  A    between atoms: _308  and  _309
REMARK  137  A    between atoms: _308  and  _311
REMARK  138  A    between atoms: _311  and  _312
REMARK  139  A    between atoms: _315  and  _317
REMARK  140  A    between atoms: _317  and  _318
REMARK  141  A    between atoms: _321  and  _323
REMARK  142  A    between atoms: _323  and  _324
REMARK  143  A    between atoms: _323  and  _326
REMARK  144  A    between atoms: _326  and  _327
REMARK  145  A    between atoms: _327  and  _328
REMARK  146  A    between atoms: _328  and  _329
REMARK  147  A    between atoms: _329  and  _330
REMARK  148  A    between atoms: _334  and  _336
REMARK  149  A    between atoms: _336  and  _337
REMARK  150  A    between atoms: _339  and  _341
REMARK  151  A    between atoms: _341  and  _342
REMARK  152  A    between atoms: _341  and  _344
REMARK  153  A    between atoms: _344  and  _345
REMARK  154  A    between atoms: _348  and  _350
REMARK  155  A    between atoms: _350  and  _351
REMARK  156  A    between atoms: _353  and  _355
REMARK  157  A    between atoms: _355  and  _356
REMARK  158  A    between atoms: _355  and  _358
REMARK  159  A    between atoms: _358  and  _359
REMARK  160  A    between atoms: _365  and  _367
REMARK  161  A    between atoms: _367  and  _368
REMARK  162  A    between atoms: _370  and  _372
REMARK  163  A    between atoms: _372  and  _373
REMARK  164  A    between atoms: _372  and  _375
REMARK  165  A    between atoms: _378  and  _380
REMARK  166  A    between atoms: _380  and  _381
REMARK  167  A    between atoms: _383  and  _385
REMARK  168  A    between atoms: _385  and  _386
REMARK  169  A    between atoms: _385  and  _388
REMARK  170  A    between atoms: _388  and  _389
REMARK  171  A    between atoms: _395  and  _397
REMARK  172  A    between atoms: _397  and  _398
REMARK  173  A    between atoms: _397  and  _400
REMARK  174  A    between atoms: _400  and  _401
REMARK  175  A    between atoms: _406  and  _407
REMARK  176  A    between atoms: _409  and  _411
REMARK  177  A    between atoms: _411  and  _412
REMARK  178  A    between atoms: _411  and  _414
REMARK  179  A    between atoms: _414  and  _415
REMARK  180  A    between atoms: _420  and  _421
REMARK  181  A    between atoms: _423  and  _425
REMARK  182  A    between atoms: _425  and  _426
REMARK  183  A    between atoms: _425  and  _428
REMARK  184  A    between atoms: _431  and  _433
REMARK  185  A    between atoms: _433  and  _434
REMARK  186  A    between atoms: _433  and  _436
REMARK  187  A    between atoms: _436  and  _437
REMARK  188  A    between atoms: _440  and  _442
REMARK  189  A    between atoms: _442  and  _443
REMARK  190  A    between atoms: _442  and  _445
REMARK  191  A    between atoms: _448  and  _450
REMARK  192  A    between atoms: _450  and  _451
REMARK  193  A    between atoms: _450  and  _453
REMARK  194  A    between atoms: _453  and  _454
REMARK  195  A    between atoms: _457  and  _459
REMARK  196  A    between atoms: _459  and  _460
REMARK  197  A    between atoms: _459  and  _462
REMARK  198  A    between atoms: _462  and  _463
REMARK  199  A    between atoms: _466  and  _468
REMARK  200  A    between atoms: _468  and  _469
REMARK  201  A    between atoms: _468  and  _471
REMARK  202  A    between atoms: _471  and  _472
REMARK  203  A    between atoms: _472  and  _473
REMARK  204  A    between atoms: _473  and  _474
REMARK  205  A    between atoms: _474  and  _475
REMARK  206  A    between atoms: _479  and  _481
REMARK  207  A    between atoms: _481  and  _482
REMARK  208  A    between atoms: _481  and  _484
REMARK  209  A    between atoms: _484  and  _485
REMARK  210  A    between atoms: _490  and  _492
REMARK  211  A    between atoms: _492  and  _493
REMARK  212  A    between atoms: _492  and  _495
REMARK  213  A    between atoms: _495  and  _496
REMARK  214  A    between atoms: _506  and  _508
REMARK  215  A    between atoms: _508  and  _509
REMARK  216  A    between atoms: _508  and  _511
REMARK  217  A    between atoms: _511  and  _512
REMARK  218  A    between atoms: _512  and  _513
REMARK  219  A    between atoms: _516  and  _518
REMARK  220  A    between atoms: _518  and  _519
REMARK  221  A    between atoms: _518  and  _521
REMARK  222  A    between atoms: _521  and  _522
REMARK  223  A    between atoms: _524  and  _526
REMARK  224  A    between atoms: _526  and  _527
REMARK  225  A    between atoms: _526  and  _529
REMARK  226  A    between atoms: _529  and  _530
REMARK  227  A    between atoms: _536  and  _538
REMARK  228  A    between atoms: _538  and  _539
REMARK  229  A    between atoms: _538  and  _541
REMARK  230  A    between atoms: _541  and  _542
REMARK  231  A    between atoms: _545  and  _547
REMARK  232  A    between atoms: _547  and  _548
REMARK  233  A    between atoms: _547  and  _550
REMARK  234  A    between atoms: _553  and  _555
REMARK  235  A    between atoms: _555  and  _556
REMARK  236  A    between atoms: _558  and  _560
REMARK  237  A    between atoms: _560  and  _561
REMARK  238  A    between atoms: _560  and  _563
REMARK  239  A    between atoms: _563  and  _564
REMARK  240  A    between atoms: _567  and  _569
REMARK  241  A    between atoms: _569  and  _570
REMARK  242  A    between atoms: _569  and  _572
REMARK  243  A    between atoms: _572  and  _573
REMARK  244  A    between atoms: _573  and  _574
REMARK  245  A    between atoms: _574  and  _575
REMARK  246  A    between atoms: _575  and  _576
REMARK  247  A    between atoms: _580  and  _582
REMARK  248  A    between atoms: _582  and  _583
REMARK  249  A    between atoms: _582  and  _585
REMARK                            x       y       z     vdW  Elec       q    Type
REMARK                         _______ _______ _______ _____ _____    ______ ____
ROOT
ATOM      1  O   HOH     1       6.848  -2.847 -22.652  0.00  0.00    +0.000 OA
ENDROOT
TORSDOF 0
