REMARK  Name = ../refined-set-2016/4p5z/4p5z_pocket.pdb
REMARK  254 active torsions:
REMARK  status: ('A' for Active; 'I' for Inactive)
REMARK    1  A    between atoms: _1  and  _3
REMARK    2  A    between atoms: _3  and  _4
REMARK    3  A    between atoms: _3  and  _6
REMARK    4  A    between atoms: _9  and  _11
REMARK    5  A    between atoms: _11  and  _12
REMARK    6  A    between atoms: _11  and  _14
REMARK    7  A    between atoms: _17  and  _19
REMARK    8  A    between atoms: _19  and  _20
REMARK    9  A    between atoms: _22  and  _24
REMARK   10  A    between atoms: _24  and  _25
REMARK   11  A    between atoms: _28  and  _30
REMARK   12  A    between atoms: _30  and  _31
REMARK   13  A    between atoms: _33  and  _35
REMARK   14  A    between atoms: _35  and  _36
REMARK   15  A    between atoms: _35  and  _38
REMARK   16  A    between atoms: _38  and  _39
REMARK   17  A    between atoms: _39  and  _40
REMARK   18  A    between atoms: _43  and  _45
REMARK   19  A    between atoms: _45  and  _46
REMARK   20  A    between atoms: _48  and  _50
REMARK   21  A    between atoms: _50  and  _51
REMARK   22  A    between atoms: _50  and  _53
REMARK   23  A    between atoms: _53  and  _54
REMARK   24  A    between atoms: _54  and  _55
REMARK   25  A    between atoms: _58  and  _60
REMARK   26  A    between atoms: _60  and  _61
REMARK   27  A    between atoms: _60  and  _63
REMARK   28  A    between atoms: _66  and  _68
REMARK   29  A    between atoms: _68  and  _69
REMARK   30  A    between atoms: _68  and  _71
REMARK   31  A    between atoms: _73  and  _75
REMARK   32  A    between atoms: _75  and  _76
REMARK   33  A    between atoms: _75  and  _78
REMARK   34  A    between atoms: _78  and  _79
REMARK   35  A    between atoms: _81  and  _83
REMARK   36  A    between atoms: _83  and  _84
REMARK   37  A    between atoms: _86  and  _88
REMARK   38  A    between atoms: _88  and  _89
REMARK   39  A    between atoms: _88  and  _91
REMARK   40  A    between atoms: _91  and  _92
REMARK   41  A    between atoms: _94  and  _96
REMARK   42  A    between atoms: _96  and  _97
REMARK   43  A    between atoms: _96  and  _99
REMARK   44  A    between atoms: _102  and  _104
REMARK   45  A    between atoms: _104  and  _105
REMARK   46  A    between atoms: _108  and  _110
REMARK   47  A    between atoms: _110  and  _111
REMARK   48  A    between atoms: _110  and  _113
REMARK   49  A    between atoms: _113  and  _114
REMARK   50  A    between atoms: _117  and  _119
REMARK   51  A    between atoms: _119  and  _120
REMARK   52  A    between atoms: _119  and  _122
REMARK   53  A    between atoms: _122  and  _123
REMARK   54  A    between atoms: _123  and  _124
REMARK   55  A    between atoms: _124  and  _125
REMARK   56  A    between atoms: _125  and  _126
REMARK   57  A    between atoms: _130  and  _132
REMARK   58  A    between atoms: _132  and  _133
REMARK   59  A    between atoms: _132  and  _135
REMARK   60  A    between atoms: _135  and  _136
REMARK   61  A    between atoms: _139  and  _141
REMARK   62  A    between atoms: _141  and  _142
REMARK   63  A    between atoms: _141  and  _144
REMARK   64  A    between atoms: _144  and  _145
REMARK   65  A    between atoms: _148  and  _150
REMARK   66  A    between atoms: _150  and  _151
REMARK   67  A    between atoms: _150  and  _153
REMARK   68  A    between atoms: _153  and  _154
REMARK   69  A    between atoms: _160  and  _162
REMARK   70  A    between atoms: _162  and  _163
REMARK   71  A    between atoms: _165  and  _167
REMARK   72  A    between atoms: _167  and  _168
REMARK   73  A    between atoms: _167  and  _170
REMARK   74  A    between atoms: _170  and  _171
REMARK   75  A    between atoms: _171  and  _172
REMARK   76  A    between atoms: _175  and  _177
REMARK   77  A    between atoms: _177  and  _178
REMARK   78  A    between atoms: _181  and  _183
REMARK   79  A    between atoms: _183  and  _184
REMARK   80  A    between atoms: _183  and  _186
REMARK   81  A    between atoms: _186  and  _187
REMARK   82  A    between atoms: _189  and  _191
REMARK   83  A    between atoms: _191  and  _192
REMARK   84  A    between atoms: _191  and  _194
REMARK   85  A    between atoms: _194  and  _195
REMARK   86  A    between atoms: _198  and  _200
REMARK   87  A    between atoms: _200  and  _201
REMARK   88  A    between atoms: _200  and  _203
REMARK   89  A    between atoms: _203  and  _204
REMARK   90  A    between atoms: _204  and  _205
REMARK   91  A    between atoms: _207  and  _209
REMARK   92  A    between atoms: _209  and  _210
REMARK   93  A    between atoms: _212  and  _214
REMARK   94  A    between atoms: _214  and  _215
REMARK   95  A    between atoms: _214  and  _217
REMARK   96  A    between atoms: _217  and  _218
REMARK   97  A    between atoms: _218  and  _219
REMARK   98  A    between atoms: _224  and  _226
REMARK   99  A    between atoms: _226  and  _227
REMARK  100  A    between atoms: _226  and  _229
REMARK  101  A    between atoms: _229  and  _230
REMARK  102  A    between atoms: _236  and  _238
REMARK  103  A    between atoms: _238  and  _239
REMARK  104  A    between atoms: _238  and  _241
REMARK  105  A    between atoms: _241  and  _242
REMARK  106  A    between atoms: _247  and  _249
REMARK  107  A    between atoms: _249  and  _250
REMARK  108  A    between atoms: _249  and  _252
REMARK  109  A    between atoms: _252  and  _253
REMARK  110  A    between atoms: _256  and  _258
REMARK  111  A    between atoms: _258  and  _259
REMARK  112  A    between atoms: _258  and  _261
REMARK  113  A    between atoms: _261  and  _262
REMARK  114  A    between atoms: _265  and  _267
REMARK  115  A    between atoms: _267  and  _268
REMARK  116  A    between atoms: _267  and  _270
REMARK  117  A    between atoms: _270  and  _271
REMARK  118  A    between atoms: _271  and  _272
REMARK  119  A    between atoms: _272  and  _273
REMARK  120  A    between atoms: _282  and  _284
REMARK  121  A    between atoms: _284  and  _285
REMARK  122  A    between atoms: _284  and  _287
REMARK  123  A    between atoms: _287  and  _288
REMARK  124  A    between atoms: _291  and  _293
REMARK  125  A    between atoms: _293  and  _294
REMARK  126  A    between atoms: _293  and  _296
REMARK  127  A    between atoms: _296  and  _297
REMARK  128  A    between atoms: _300  and  _302
REMARK  129  A    between atoms: _302  and  _303
REMARK  130  A    between atoms: _302  and  _305
REMARK  131  A    between atoms: _308  and  _310
REMARK  132  A    between atoms: _310  and  _311
REMARK  133  A    between atoms: _310  and  _313
REMARK  134  A    between atoms: _313  and  _314
REMARK  135  A    between atoms: _317  and  _319
REMARK  136  A    between atoms: _319  and  _320
REMARK  137  A    between atoms: _319  and  _322
REMARK  138  A    between atoms: _322  and  _323
REMARK  139  A    between atoms: _323  and  _324
REMARK  140  A    between atoms: _327  and  _329
REMARK  141  A    between atoms: _329  and  _330
REMARK  142  A    between atoms: _329  and  _332
REMARK  143  A    between atoms: _332  and  _333
REMARK  144  A    between atoms: _338  and  _339
REMARK  145  A    between atoms: _341  and  _343
REMARK  146  A    between atoms: _343  and  _344
REMARK  147  A    between atoms: _343  and  _346
REMARK  148  A    between atoms: _346  and  _347
REMARK  149  A    between atoms: _347  and  _348
REMARK  150  A    between atoms: _350  and  _352
REMARK  151  A    between atoms: _352  and  _353
REMARK  152  A    between atoms: _352  and  _355
REMARK  153  A    between atoms: _355  and  _356
REMARK  154  A    between atoms: _356  and  _357
REMARK  155  A    between atoms: _360  and  _362
REMARK  156  A    between atoms: _362  and  _363
REMARK  157  A    between atoms: _362  and  _365
REMARK  158  A    between atoms: _365  and  _366
REMARK  159  A    between atoms: _371  and  _373
REMARK  160  A    between atoms: _373  and  _374
REMARK  161  A    between atoms: _376  and  _378
REMARK  162  A    between atoms: _378  and  _379
REMARK  163  A    between atoms: _378  and  _381
REMARK  164  A    between atoms: _381  and  _382
REMARK  165  A    between atoms: _384  and  _386
REMARK  166  A    between atoms: _386  and  _387
REMARK  167  A    between atoms: _386  and  _389
REMARK  168  A    between atoms: _389  and  _390
REMARK  169  A    between atoms: _392  and  _394
REMARK  170  A    between atoms: _394  and  _395
REMARK  171  A    between atoms: _397  and  _399
REMARK  172  A    between atoms: _399  and  _400
REMARK  173  A    between atoms: _399  and  _402
REMARK  174  A    between atoms: _402  and  _403
REMARK  175  A    between atoms: _403  and  _404
REMARK  176  A    between atoms: _406  and  _408
REMARK  177  A    between atoms: _408  and  _409
REMARK  178  A    between atoms: _408  and  _411
REMARK  179  A    between atoms: _411  and  _412
REMARK  180  A    between atoms: _417  and  _418
REMARK  181  A    between atoms: _420  and  _422
REMARK  182  A    between atoms: _422  and  _423
REMARK  183  A    between atoms: _422  and  _425
REMARK  184  A    between atoms: _425  and  _426
REMARK  185  A    between atoms: _429  and  _431
REMARK  186  A    between atoms: _431  and  _432
REMARK  187  A    between atoms: _431  and  _434
REMARK  188  A    between atoms: _434  and  _435
REMARK  189  A    between atoms: _440  and  _441
REMARK  190  A    between atoms: _443  and  _445
REMARK  191  A    between atoms: _445  and  _446
REMARK  192  A    between atoms: _445  and  _448
REMARK  193  A    between atoms: _451  and  _453
REMARK  194  A    between atoms: _453  and  _454
REMARK  195  A    between atoms: _453  and  _456
REMARK  196  A    between atoms: _456  and  _457
REMARK  197  A    between atoms: _462  and  _464
REMARK  198  A    between atoms: _464  and  _465
REMARK  199  A    between atoms: _464  and  _467
REMARK  200  A    between atoms: _467  and  _468
REMARK  201  A    between atoms: _468  and  _469
REMARK  202  A    between atoms: _469  and  _470
REMARK  203  A    between atoms: _479  and  _481
REMARK  204  A    between atoms: _481  and  _482
REMARK  205  A    between atoms: _481  and  _484
REMARK  206  A    between atoms: _484  and  _485
REMARK  207  A    between atoms: _488  and  _490
REMARK  208  A    between atoms: _490  and  _491
REMARK  209  A    between atoms: _490  and  _493
REMARK  210  A    between atoms: _493  and  _494
REMARK  211  A    between atoms: _494  and  _495
REMARK  212  A    between atoms: _495  and  _496
REMARK  213  A    between atoms: _505  and  _507
REMARK  214  A    between atoms: _507  and  _508
REMARK  215  A    between atoms: _507  and  _510
REMARK  216  A    between atoms: _510  and  _511
REMARK  217  A    between atoms: _516  and  _518
REMARK  218  A    between atoms: _518  and  _519
REMARK  219  A    between atoms: _518  and  _521
REMARK  220  A    between atoms: _521  and  _522
REMARK  221  A    between atoms: _525  and  _527
REMARK  222  A    between atoms: _527  and  _528
REMARK  223  A    between atoms: _527  and  _530
REMARK  224  A    between atoms: _530  and  _531
REMARK  225  A    between atoms: _534  and  _536
REMARK  226  A    between atoms: _536  and  _537
REMARK  227  A    between atoms: _536  and  _539
REMARK  228  A    between atoms: _539  and  _540
REMARK  229  A    between atoms: _543  and  _545
REMARK  230  A    between atoms: _545  and  _546
REMARK  231  A    between atoms: _545  and  _548
REMARK  232  A    between atoms: _548  and  _549
REMARK  233  A    between atoms: _554  and  _556
REMARK  234  A    between atoms: _556  and  _557
REMARK  235  A    between atoms: _556  and  _559
REMARK  236  A    between atoms: _559  and  _560
REMARK  237  A    between atoms: _560  and  _561
REMARK  238  A    between atoms: _561  and  _562
REMARK  239  A    between atoms: _562  and  _563
REMARK  240  A    between atoms: _567  and  _569
REMARK  241  A    between atoms: _569  and  _570
REMARK  242  A    between atoms: _569  and  _572
REMARK  243  A    between atoms: _575  and  _577
REMARK  244  A    between atoms: _577  and  _578
REMARK  245  A    between atoms: _577  and  _580
REMARK  246  A    between atoms: _580  and  _581
REMARK  247  A    between atoms: _583  and  _585
REMARK  248  A    between atoms: _585  and  _586
REMARK  249  A    between atoms: _585  and  _588
REMARK  250  A    between atoms: _588  and  _589
REMARK  251  A    between atoms: _592  and  _594
REMARK  252  A    between atoms: _594  and  _595
REMARK  253  A    between atoms: _594  and  _597
REMARK  254  A    between atoms: _597  and  _598
REMARK                            x       y       z     vdW  Elec       q    Type
REMARK                         _______ _______ _______ _____ _____    ______ ____
ROOT
ATOM      1  C   GLY A   3       6.525 -15.716 -19.684  0.00  0.00    +0.243 C 
ATOM      2  O   GLY A   3       7.434 -15.149 -19.084  0.00  0.00    -0.273 OA
ATOM      3  N   ALA A   4       6.322 -15.594 -20.983  0.00  0.00    -0.297 N 
ATOM      4  H   ALA A   4       5.700 -16.272 -21.468  0.00  0.00    +0.150 HD
ENDROOT
BRANCH   3   5
ATOM      5  CA  ALA A   4       6.944 -14.541 -21.741  0.00  0.00    +0.149 C 
ATOM      6  CB  ALA A   4       7.331 -15.018 -23.113  0.00  0.00    +0.031 C 
BRANCH   5   7
ATOM      7  C   ALA A   4       5.940 -13.419 -21.814  0.00  0.00    +0.241 C 
ATOM      8  N   GLY A   5       6.370 -12.228 -21.430  0.00  0.00    -0.295 N 
ATOM      9  H   GLY A   5       7.323 -12.140 -21.024  0.00  0.00    +0.150 HD
ATOM     10  O   ALA A   4       4.784 -13.637 -22.176  0.00  0.00    -0.273 OA
BRANCH   8  11
ATOM     11  CA  GLY A   5       5.550 -11.048 -21.560  0.00  0.00    +0.176 C 
BRANCH  11  12
ATOM     12  C   GLY A   5       5.939 -10.380 -22.859  0.00  0.00    +0.243 C 
ATOM     13  N   GLU A   6       5.632  -9.094 -22.975  0.00  0.00    -0.298 N 
ATOM     14  H   GLU A   6       5.176  -8.607 -22.177  0.00  0.00    +0.150 HD
ATOM     15  O   GLY A   5       6.524 -11.020 -23.738  0.00  0.00    -0.273 OA
BRANCH  13  16
ATOM     16  CA  GLU A   6       5.918  -8.348 -24.192  0.00  0.00    +0.137 C 
BRANCH  16  17
ATOM     17  C   GLU A   6       7.345  -7.799 -24.246  0.00  0.00    +0.227 C 
ATOM     18  O   GLU A   6       8.004  -7.857 -25.287  0.00  0.00    -0.286 OA
ENDBRANCH  16  17
BRANCH  16  19
ATOM     19  CB  GLU A   6       4.927  -7.200 -24.331  0.00  0.00    +0.039 C 
BRANCH  19  20
ATOM     20  CG  GLU A   6       3.562  -7.633 -24.830  0.00  0.00    +0.116 C 
BRANCH  20  21
ATOM     21  CD  GLU A   6       2.865  -6.538 -25.603  0.00  0.00    +0.365 C 
ATOM     22  OE2 GLU A   6       2.874  -5.383 -25.118  0.00  0.00    -0.246 OA
ATOM     23  OE1 GLU A   6       2.323  -6.832 -26.694  0.00  0.00    -0.246 OA
ENDBRANCH  20  21
ENDBRANCH  19  20
ENDBRANCH  16  19
ENDBRANCH  13  16
ENDBRANCH  11  12
ENDBRANCH   8  11
ENDBRANCH   5   7
ENDBRANCH   3   5
BRANCH   1  24
ATOM     24  CA  GLY A   3       5.587 -16.654 -18.980  0.00  0.00    +0.176 C 
BRANCH  24  27
ATOM     25  C   VAL A   2       5.349 -17.742 -16.857  0.00  0.00    +0.241 C 
ATOM     26  O   VAL A   2       4.141 -17.869 -17.036  0.00  0.00    -0.273 OA
ATOM     27  N   GLY A   3       6.134 -17.144 -17.737  0.00  0.00    -0.295 N 
ATOM     28  H   GLY A   3       7.147 -17.026 -17.533  0.00  0.00    +0.150 HD
BRANCH  25  29
ATOM     29  CA  VAL A   2       6.000 -18.256 -15.583  0.00  0.00    +0.148 C 
BRANCH  29  31
ATOM     30  C   VAL A   1       8.389 -18.731 -15.357  0.00  0.00    +0.238 C 
ATOM     31  N   VAL A   2       7.402 -17.839 -15.432  0.00  0.00    -0.297 N 
ATOM     32  H   VAL A   2       7.628 -16.825 -15.383  0.00  0.00    +0.150 HD
ATOM     33  O   VAL A   1       8.217 -19.930 -15.534  0.00  0.00    -0.274 OA
BRANCH  30  34
ATOM     34  CA  VAL A   1       9.784 -18.209 -15.022  0.00  0.00    +0.145 C 
BRANCH  34  35
ATOM     35  CB  VAL A   1      10.715 -18.391 -16.232  0.00  0.00    +0.025 C 
ATOM     36  CG2 VAL A   1      12.141 -18.109 -15.854  0.00  0.00    +0.002 C 
ATOM     37  CG1 VAL A   1      10.280 -17.464 -17.374  0.00  0.00    +0.002 C 
ENDBRANCH  34  35
BRANCH  34  38
ATOM     38  N   VAL A   1      10.253 -18.920 -13.838  0.00  0.00    -0.238 NA
ATOM     39  H   VAL A   1      10.832 -19.777 -13.952  0.00  0.00    +0.142 HD
ENDBRANCH  34  38
ENDBRANCH  30  34
ENDBRANCH  29  31
BRANCH  29  40
ATOM     40  CB  VAL A   2       5.132 -17.792 -14.399  0.00  0.00    +0.027 C 
ATOM     41  CG2 VAL A   2       5.782 -18.198 -13.099  0.00  0.00    +0.002 C 
ATOM     42  CG1 VAL A   2       4.895 -16.271 -14.436  0.00  0.00    +0.002 C 
ENDBRANCH  29  40
ENDBRANCH  25  29
ENDBRANCH  24  27
ENDBRANCH   1  24
TORSDOF 17
REMARK  Name = ../refined-set-2016/4p5z/4p5z_pocket.pdb
REMARK  254 active torsions:
REMARK  status: ('A' for Active; 'I' for Inactive)
REMARK    1  A    between atoms: _1  and  _3
REMARK    2  A    between atoms: _3  and  _4
REMARK    3  A    between atoms: _3  and  _6
REMARK    4  A    between atoms: _9  and  _11
REMARK    5  A    between atoms: _11  and  _12
REMARK    6  A    between atoms: _11  and  _14
REMARK    7  A    between atoms: _17  and  _19
REMARK    8  A    between atoms: _19  and  _20
REMARK    9  A    between atoms: _22  and  _24
REMARK   10  A    between atoms: _24  and  _25
REMARK   11  A    between atoms: _28  and  _30
REMARK   12  A    between atoms: _30  and  _31
REMARK   13  A    between atoms: _33  and  _35
REMARK   14  A    between atoms: _35  and  _36
REMARK   15  A    between atoms: _35  and  _38
REMARK   16  A    between atoms: _38  and  _39
REMARK   17  A    between atoms: _39  and  _40
REMARK   18  A    between atoms: _43  and  _45
REMARK   19  A    between atoms: _45  and  _46
REMARK   20  A    between atoms: _48  and  _50
REMARK   21  A    between atoms: _50  and  _51
REMARK   22  A    between atoms: _50  and  _53
REMARK   23  A    between atoms: _53  and  _54
REMARK   24  A    between atoms: _54  and  _55
REMARK   25  A    between atoms: _58  and  _60
REMARK   26  A    between atoms: _60  and  _61
REMARK   27  A    between atoms: _60  and  _63
REMARK   28  A    between atoms: _66  and  _68
REMARK   29  A    between atoms: _68  and  _69
REMARK   30  A    between atoms: _68  and  _71
REMARK   31  A    between atoms: _73  and  _75
REMARK   32  A    between atoms: _75  and  _76
REMARK   33  A    between atoms: _75  and  _78
REMARK   34  A    between atoms: _78  and  _79
REMARK   35  A    between atoms: _81  and  _83
REMARK   36  A    between atoms: _83  and  _84
REMARK   37  A    between atoms: _86  and  _88
REMARK   38  A    between atoms: _88  and  _89
REMARK   39  A    between atoms: _88  and  _91
REMARK   40  A    between atoms: _91  and  _92
REMARK   41  A    between atoms: _94  and  _96
REMARK   42  A    between atoms: _96  and  _97
REMARK   43  A    between atoms: _96  and  _99
REMARK   44  A    between atoms: _102  and  _104
REMARK   45  A    between atoms: _104  and  _105
REMARK   46  A    between atoms: _108  and  _110
REMARK   47  A    between atoms: _110  and  _111
REMARK   48  A    between atoms: _110  and  _113
REMARK   49  A    between atoms: _113  and  _114
REMARK   50  A    between atoms: _117  and  _119
REMARK   51  A    between atoms: _119  and  _120
REMARK   52  A    between atoms: _119  and  _122
REMARK   53  A    between atoms: _122  and  _123
REMARK   54  A    between atoms: _123  and  _124
REMARK   55  A    between atoms: _124  and  _125
REMARK   56  A    between atoms: _125  and  _126
REMARK   57  A    between atoms: _130  and  _132
REMARK   58  A    between atoms: _132  and  _133
REMARK   59  A    between atoms: _132  and  _135
REMARK   60  A    between atoms: _135  and  _136
REMARK   61  A    between atoms: _139  and  _141
REMARK   62  A    between atoms: _141  and  _142
REMARK   63  A    between atoms: _141  and  _144
REMARK   64  A    between atoms: _144  and  _145
REMARK   65  A    between atoms: _148  and  _150
REMARK   66  A    between atoms: _150  and  _151
REMARK   67  A    between atoms: _150  and  _153
REMARK   68  A    between atoms: _153  and  _154
REMARK   69  A    between atoms: _160  and  _162
REMARK   70  A    between atoms: _162  and  _163
REMARK   71  A    between atoms: _165  and  _167
REMARK   72  A    between atoms: _167  and  _168
REMARK   73  A    between atoms: _167  and  _170
REMARK   74  A    between atoms: _170  and  _171
REMARK   75  A    between atoms: _171  and  _172
REMARK   76  A    between atoms: _175  and  _177
REMARK   77  A    between atoms: _177  and  _178
REMARK   78  A    between atoms: _181  and  _183
REMARK   79  A    between atoms: _183  and  _184
REMARK   80  A    between atoms: _183  and  _186
REMARK   81  A    between atoms: _186  and  _187
REMARK   82  A    between atoms: _189  and  _191
REMARK   83  A    between atoms: _191  and  _192
REMARK   84  A    between atoms: _191  and  _194
REMARK   85  A    between atoms: _194  and  _195
REMARK   86  A    between atoms: _198  and  _200
REMARK   87  A    between atoms: _200  and  _201
REMARK   88  A    between atoms: _200  and  _203
REMARK   89  A    between atoms: _203  and  _204
REMARK   90  A    between atoms: _204  and  _205
REMARK   91  A    between atoms: _207  and  _209
REMARK   92  A    between atoms: _209  and  _210
REMARK   93  A    between atoms: _212  and  _214
REMARK   94  A    between atoms: _214  and  _215
REMARK   95  A    between atoms: _214  and  _217
REMARK   96  A    between atoms: _217  and  _218
REMARK   97  A    between atoms: _218  and  _219
REMARK   98  A    between atoms: _224  and  _226
REMARK   99  A    between atoms: _226  and  _227
REMARK  100  A    between atoms: _226  and  _229
REMARK  101  A    between atoms: _229  and  _230
REMARK  102  A    between atoms: _236  and  _238
REMARK  103  A    between atoms: _238  and  _239
REMARK  104  A    between atoms: _238  and  _241
REMARK  105  A    between atoms: _241  and  _242
REMARK  106  A    between atoms: _247  and  _249
REMARK  107  A    between atoms: _249  and  _250
REMARK  108  A    between atoms: _249  and  _252
REMARK  109  A    between atoms: _252  and  _253
REMARK  110  A    between atoms: _256  and  _258
REMARK  111  A    between atoms: _258  and  _259
REMARK  112  A    between atoms: _258  and  _261
REMARK  113  A    between atoms: _261  and  _262
REMARK  114  A    between atoms: _265  and  _267
REMARK  115  A    between atoms: _267  and  _268
REMARK  116  A    between atoms: _267  and  _270
REMARK  117  A    between atoms: _270  and  _271
REMARK  118  A    between atoms: _271  and  _272
REMARK  119  A    between atoms: _272  and  _273
REMARK  120  A    between atoms: _282  and  _284
REMARK  121  A    between atoms: _284  and  _285
REMARK  122  A    between atoms: _284  and  _287
REMARK  123  A    between atoms: _287  and  _288
REMARK  124  A    between atoms: _291  and  _293
REMARK  125  A    between atoms: _293  and  _294
REMARK  126  A    between atoms: _293  and  _296
REMARK  127  A    between atoms: _296  and  _297
REMARK  128  A    between atoms: _300  and  _302
REMARK  129  A    between atoms: _302  and  _303
REMARK  130  A    between atoms: _302  and  _305
REMARK  131  A    between atoms: _308  and  _310
REMARK  132  A    between atoms: _310  and  _311
REMARK  133  A    between atoms: _310  and  _313
REMARK  134  A    between atoms: _313  and  _314
REMARK  135  A    between atoms: _317  and  _319
REMARK  136  A    between atoms: _319  and  _320
REMARK  137  A    between atoms: _319  and  _322
REMARK  138  A    between atoms: _322  and  _323
REMARK  139  A    between atoms: _323  and  _324
REMARK  140  A    between atoms: _327  and  _329
REMARK  141  A    between atoms: _329  and  _330
REMARK  142  A    between atoms: _329  and  _332
REMARK  143  A    between atoms: _332  and  _333
REMARK  144  A    between atoms: _338  and  _339
REMARK  145  A    between atoms: _341  and  _343
REMARK  146  A    between atoms: _343  and  _344
REMARK  147  A    between atoms: _343  and  _346
REMARK  148  A    between atoms: _346  and  _347
REMARK  149  A    between atoms: _347  and  _348
REMARK  150  A    between atoms: _350  and  _352
REMARK  151  A    between atoms: _352  and  _353
REMARK  152  A    between atoms: _352  and  _355
REMARK  153  A    between atoms: _355  and  _356
REMARK  154  A    between atoms: _356  and  _357
REMARK  155  A    between atoms: _360  and  _362
REMARK  156  A    between atoms: _362  and  _363
REMARK  157  A    between atoms: _362  and  _365
REMARK  158  A    between atoms: _365  and  _366
REMARK  159  A    between atoms: _371  and  _373
REMARK  160  A    between atoms: _373  and  _374
REMARK  161  A    between atoms: _376  and  _378
REMARK  162  A    between atoms: _378  and  _379
REMARK  163  A    between atoms: _378  and  _381
REMARK  164  A    between atoms: _381  and  _382
REMARK  165  A    between atoms: _384  and  _386
REMARK  166  A    between atoms: _386  and  _387
REMARK  167  A    between atoms: _386  and  _389
REMARK  168  A    between atoms: _389  and  _390
REMARK  169  A    between atoms: _392  and  _394
REMARK  170  A    between atoms: _394  and  _395
REMARK  171  A    between atoms: _397  and  _399
REMARK  172  A    between atoms: _399  and  _400
REMARK  173  A    between atoms: _399  and  _402
REMARK  174  A    between atoms: _402  and  _403
REMARK  175  A    between atoms: _403  and  _404
REMARK  176  A    between atoms: _406  and  _408
REMARK  177  A    between atoms: _408  and  _409
REMARK  178  A    between atoms: _408  and  _411
REMARK  179  A    between atoms: _411  and  _412
REMARK  180  A    between atoms: _417  and  _418
REMARK  181  A    between atoms: _420  and  _422
REMARK  182  A    between atoms: _422  and  _423
REMARK  183  A    between atoms: _422  and  _425
REMARK  184  A    between atoms: _425  and  _426
REMARK  185  A    between atoms: _429  and  _431
REMARK  186  A    between atoms: _431  and  _432
REMARK  187  A    between atoms: _431  and  _434
REMARK  188  A    between atoms: _434  and  _435
REMARK  189  A    between atoms: _440  and  _441
REMARK  190  A    between atoms: _443  and  _445
REMARK  191  A    between atoms: _445  and  _446
REMARK  192  A    between atoms: _445  and  _448
REMARK  193  A    between atoms: _451  and  _453
REMARK  194  A    between atoms: _453  and  _454
REMARK  195  A    between atoms: _453  and  _456
REMARK  196  A    between atoms: _456  and  _457
REMARK  197  A    between atoms: _462  and  _464
REMARK  198  A    between atoms: _464  and  _465
REMARK  199  A    between atoms: _464  and  _467
REMARK  200  A    between atoms: _467  and  _468
REMARK  201  A    between atoms: _468  and  _469
REMARK  202  A    between atoms: _469  and  _470
REMARK  203  A    between atoms: _479  and  _481
REMARK  204  A    between atoms: _481  and  _482
REMARK  205  A    between atoms: _481  and  _484
REMARK  206  A    between atoms: _484  and  _485
REMARK  207  A    between atoms: _488  and  _490
REMARK  208  A    between atoms: _490  and  _491
REMARK  209  A    between atoms: _490  and  _493
REMARK  210  A    between atoms: _493  and  _494
REMARK  211  A    between atoms: _494  and  _495
REMARK  212  A    between atoms: _495  and  _496
REMARK  213  A    between atoms: _505  and  _507
REMARK  214  A    between atoms: _507  and  _508
REMARK  215  A    between atoms: _507  and  _510
REMARK  216  A    between atoms: _510  and  _511
REMARK  217  A    between atoms: _516  and  _518
REMARK  218  A    between atoms: _518  and  _519
REMARK  219  A    between atoms: _518  and  _521
REMARK  220  A    between atoms: _521  and  _522
REMARK  221  A    between atoms: _525  and  _527
REMARK  222  A    between atoms: _527  and  _528
REMARK  223  A    between atoms: _527  and  _530
REMARK  224  A    between atoms: _530  and  _531
REMARK  225  A    between atoms: _534  and  _536
REMARK  226  A    between atoms: _536  and  _537
REMARK  227  A    between atoms: _536  and  _539
REMARK  228  A    between atoms: _539  and  _540
REMARK  229  A    between atoms: _543  and  _545
REMARK  230  A    between atoms: _545  and  _546
REMARK  231  A    between atoms: _545  and  _548
REMARK  232  A    between atoms: _548  and  _549
REMARK  233  A    between atoms: _554  and  _556
REMARK  234  A    between atoms: _556  and  _557
REMARK  235  A    between atoms: _556  and  _559
REMARK  236  A    between atoms: _559  and  _560
REMARK  237  A    between atoms: _560  and  _561
REMARK  238  A    between atoms: _561  and  _562
REMARK  239  A    between atoms: _562  and  _563
REMARK  240  A    between atoms: _567  and  _569
REMARK  241  A    between atoms: _569  and  _570
REMARK  242  A    between atoms: _569  and  _572
REMARK  243  A    between atoms: _575  and  _577
REMARK  244  A    between atoms: _577  and  _578
REMARK  245  A    between atoms: _577  and  _580
REMARK  246  A    between atoms: _580  and  _581
REMARK  247  A    between atoms: _583  and  _585
REMARK  248  A    between atoms: _585  and  _586
REMARK  249  A    between atoms: _585  and  _588
REMARK  250  A    between atoms: _588  and  _589
REMARK  251  A    between atoms: _592  and  _594
REMARK  252  A    between atoms: _594  and  _595
REMARK  253  A    between atoms: _594  and  _597
REMARK  254  A    between atoms: _597  and  _598
REMARK                            x       y       z     vdW  Elec       q    Type
REMARK                         _______ _______ _______ _____ _____    ______ ____
ROOT
ATOM      1  C   VAL A   3       7.822 -13.904 -15.323  0.00  0.00    +0.241 C 
ATOM      2  N   CYS A   4       8.173 -13.583 -14.086  0.00  0.00    -0.296 N 
ATOM      3  H   CYS A   4       8.169 -12.581 -13.807  0.00  0.00    +0.150 HD
ATOM      4  O   VAL A   3       7.762 -15.074 -15.733  0.00  0.00    -0.273 OA
ENDROOT
BRANCH   2   5
ATOM      5  CA  CYS A   4       8.561 -14.577 -13.113  0.00  0.00    +0.160 C 
BRANCH   5   6
ATOM      6  C   CYS A   4       7.763 -14.451 -11.841  0.00  0.00    +0.242 C 
ATOM      7  N   SER A   5       7.846 -15.473 -11.022  0.00  0.00    -0.295 N 
ATOM      8  H   SER A   5       8.382 -16.314 -11.318  0.00  0.00    +0.150 HD
ATOM      9  O   CYS A   4       7.098 -13.454 -11.587  0.00  0.00    -0.273 OA
BRANCH   7  10
ATOM     10  CA  SER A   5       7.219 -15.465  -9.729  0.00  0.00    +0.178 C 
BRANCH  10  11
ATOM     11  C   SER A   5       8.379 -15.438  -8.761  0.00  0.00    +0.243 C 
ATOM     12  N   GLY A   6       8.189 -14.803  -7.618  0.00  0.00    -0.296 N 
ATOM     13  H   GLY A   6       7.275 -14.349  -7.417  0.00  0.00    +0.150 HD
ATOM     14  O   SER A   5       9.464 -15.971  -9.044  0.00  0.00    -0.273 OA
BRANCH  12  15
ATOM     15  CA  GLY A   6       9.266 -14.744  -6.643  0.00  0.00    +0.163 C 
BRANCH  15  16
ATOM     16  C   GLY A   6       8.795 -14.182  -5.329  0.00  0.00    +0.229 C 
ATOM     17  O   GLY A   6       7.600 -14.170  -5.055  0.00  0.00    -0.286 OA
ENDBRANCH  15  16
ENDBRANCH  12  15
ENDBRANCH  10  11
BRANCH  10  18
ATOM     18  CB  SER A   5       6.314 -16.681  -9.543  0.00  0.00    +0.166 C 
BRANCH  18  19
ATOM     19  OG  SER A   5       7.071 -17.877  -9.696  0.00  0.00    -0.380 OA
ATOM     20  H   SER A   5       7.792 -17.899  -9.018  0.00  0.00    +0.211 HD
ENDBRANCH  18  19
ENDBRANCH  10  18
ENDBRANCH   7  10
ENDBRANCH   5   6
BRANCH   5  21
ATOM     21  CB  CYS A   4      10.049 -14.461 -12.777  0.00  0.00    +0.098 C 
ATOM     22  SG  CYS A   4      11.178 -14.448 -14.191  0.00  0.00    -0.080 S 
ENDBRANCH   5  21
ENDBRANCH   2   5
BRANCH   1  23
ATOM     23  CA  VAL A   3       7.511 -12.739 -16.238  0.00  0.00    +0.149 C 
BRANCH  23  25
ATOM     24  C   GLU A   2       9.074 -12.161 -18.003  0.00  0.00    +0.241 C 
ATOM     25  N   VAL A   3       8.168 -12.997 -17.504  0.00  0.00    -0.297 N 
ATOM     26  H   VAL A   3       7.925 -13.857 -18.035  0.00  0.00    +0.150 HD
ATOM     27  O   GLU A   2       9.332 -11.060 -17.512  0.00  0.00    -0.273 OA
BRANCH  24  28
ATOM     28  CA  GLU A   2       9.830 -12.678 -19.205  0.00  0.00    +0.149 C 
BRANCH  28  30
ATOM     29  C   GLY A   1       9.816 -10.796 -20.777  0.00  0.00    +0.240 C 
ATOM     30  N   GLU A   2      10.487 -11.651 -20.014  0.00  0.00    -0.297 N 
ATOM     31  H   GLU A   2      11.525 -11.588 -19.990  0.00  0.00    +0.150 HD
ATOM     32  O   GLY A   1       8.587 -10.703 -20.765  0.00  0.00    -0.274 OA
BRANCH  29  33
ATOM     33  CA  GLY A   1      10.641  -9.893 -21.674  0.00  0.00    +0.169 C 
BRANCH  33  34
ATOM     34  N   GLY A   1       9.778  -8.897 -22.285  0.00  0.00    -0.236 NA
ATOM     35  H   GLY A   1       8.800  -9.159 -22.524  0.00  0.00    +0.142 HD
ENDBRANCH  33  34
ENDBRANCH  29  33
ENDBRANCH  28  30
BRANCH  28  36
ATOM     36  CB  GLU A   2      10.857 -13.682 -18.682  0.00  0.00    +0.041 C 
BRANCH  36  37
ATOM     37  CG  GLU A   2      11.367 -14.664 -19.710  0.00  0.00    +0.116 C 
BRANCH  37  38
ATOM     38  CD  GLU A   2      12.329 -14.048 -20.715  0.00  0.00    +0.365 C 
ATOM     39  OE2 GLU A   2      12.655 -12.840 -20.591  0.00  0.00    -0.246 OA
ATOM     40  OE1 GLU A   2      12.760 -14.788 -21.633  0.00  0.00    -0.246 OA
ENDBRANCH  37  38
ENDBRANCH  36  37
ENDBRANCH  28  36
ENDBRANCH  24  28
ENDBRANCH  23  25
BRANCH  23  41
ATOM     41  CB  VAL A   3       6.001 -12.544 -16.392  0.00  0.00    +0.027 C 
ATOM     42  CG2 VAL A   3       5.375 -12.140 -15.061  0.00  0.00    +0.002 C 
ATOM     43  CG1 VAL A   3       5.699 -11.481 -17.471  0.00  0.00    +0.002 C 
ENDBRANCH  23  41
ENDBRANCH   1  23
TORSDOF 19
REMARK  Name = ../refined-set-2016/4p5z/4p5z_pocket.pdb
REMARK  254 active torsions:
REMARK  status: ('A' for Active; 'I' for Inactive)
REMARK    1  A    between atoms: _1  and  _3
REMARK    2  A    between atoms: _3  and  _4
REMARK    3  A    between atoms: _3  and  _6
REMARK    4  A    between atoms: _9  and  _11
REMARK    5  A    between atoms: _11  and  _12
REMARK    6  A    between atoms: _11  and  _14
REMARK    7  A    between atoms: _17  and  _19
REMARK    8  A    between atoms: _19  and  _20
REMARK    9  A    between atoms: _22  and  _24
REMARK   10  A    between atoms: _24  and  _25
REMARK   11  A    between atoms: _28  and  _30
REMARK   12  A    between atoms: _30  and  _31
REMARK   13  A    between atoms: _33  and  _35
REMARK   14  A    between atoms: _35  and  _36
REMARK   15  A    between atoms: _35  and  _38
REMARK   16  A    between atoms: _38  and  _39
REMARK   17  A    between atoms: _39  and  _40
REMARK   18  A    between atoms: _43  and  _45
REMARK   19  A    between atoms: _45  and  _46
REMARK   20  A    between atoms: _48  and  _50
REMARK   21  A    between atoms: _50  and  _51
REMARK   22  A    between atoms: _50  and  _53
REMARK   23  A    between atoms: _53  and  _54
REMARK   24  A    between atoms: _54  and  _55
REMARK   25  A    between atoms: _58  and  _60
REMARK   26  A    between atoms: _60  and  _61
REMARK   27  A    between atoms: _60  and  _63
REMARK   28  A    between atoms: _66  and  _68
REMARK   29  A    between atoms: _68  and  _69
REMARK   30  A    between atoms: _68  and  _71
REMARK   31  A    between atoms: _73  and  _75
REMARK   32  A    between atoms: _75  and  _76
REMARK   33  A    between atoms: _75  and  _78
REMARK   34  A    between atoms: _78  and  _79
REMARK   35  A    between atoms: _81  and  _83
REMARK   36  A    between atoms: _83  and  _84
REMARK   37  A    between atoms: _86  and  _88
REMARK   38  A    between atoms: _88  and  _89
REMARK   39  A    between atoms: _88  and  _91
REMARK   40  A    between atoms: _91  and  _92
REMARK   41  A    between atoms: _94  and  _96
REMARK   42  A    between atoms: _96  and  _97
REMARK   43  A    between atoms: _96  and  _99
REMARK   44  A    between atoms: _102  and  _104
REMARK   45  A    between atoms: _104  and  _105
REMARK   46  A    between atoms: _108  and  _110
REMARK   47  A    between atoms: _110  and  _111
REMARK   48  A    between atoms: _110  and  _113
REMARK   49  A    between atoms: _113  and  _114
REMARK   50  A    between atoms: _117  and  _119
REMARK   51  A    between atoms: _119  and  _120
REMARK   52  A    between atoms: _119  and  _122
REMARK   53  A    between atoms: _122  and  _123
REMARK   54  A    between atoms: _123  and  _124
REMARK   55  A    between atoms: _124  and  _125
REMARK   56  A    between atoms: _125  and  _126
REMARK   57  A    between atoms: _130  and  _132
REMARK   58  A    between atoms: _132  and  _133
REMARK   59  A    between atoms: _132  and  _135
REMARK   60  A    between atoms: _135  and  _136
REMARK   61  A    between atoms: _139  and  _141
REMARK   62  A    between atoms: _141  and  _142
REMARK   63  A    between atoms: _141  and  _144
REMARK   64  A    between atoms: _144  and  _145
REMARK   65  A    between atoms: _148  and  _150
REMARK   66  A    between atoms: _150  and  _151
REMARK   67  A    between atoms: _150  and  _153
REMARK   68  A    between atoms: _153  and  _154
REMARK   69  A    between atoms: _160  and  _162
REMARK   70  A    between atoms: _162  and  _163
REMARK   71  A    between atoms: _165  and  _167
REMARK   72  A    between atoms: _167  and  _168
REMARK   73  A    between atoms: _167  and  _170
REMARK   74  A    between atoms: _170  and  _171
REMARK   75  A    between atoms: _171  and  _172
REMARK   76  A    between atoms: _175  and  _177
REMARK   77  A    between atoms: _177  and  _178
REMARK   78  A    between atoms: _181  and  _183
REMARK   79  A    between atoms: _183  and  _184
REMARK   80  A    between atoms: _183  and  _186
REMARK   81  A    between atoms: _186  and  _187
REMARK   82  A    between atoms: _189  and  _191
REMARK   83  A    between atoms: _191  and  _192
REMARK   84  A    between atoms: _191  and  _194
REMARK   85  A    between atoms: _194  and  _195
REMARK   86  A    between atoms: _198  and  _200
REMARK   87  A    between atoms: _200  and  _201
REMARK   88  A    between atoms: _200  and  _203
REMARK   89  A    between atoms: _203  and  _204
REMARK   90  A    between atoms: _204  and  _205
REMARK   91  A    between atoms: _207  and  _209
REMARK   92  A    between atoms: _209  and  _210
REMARK   93  A    between atoms: _212  and  _214
REMARK   94  A    between atoms: _214  and  _215
REMARK   95  A    between atoms: _214  and  _217
REMARK   96  A    between atoms: _217  and  _218
REMARK   97  A    between atoms: _218  and  _219
REMARK   98  A    between atoms: _224  and  _226
REMARK   99  A    between atoms: _226  and  _227
REMARK  100  A    between atoms: _226  and  _229
REMARK  101  A    between atoms: _229  and  _230
REMARK  102  A    between atoms: _236  and  _238
REMARK  103  A    between atoms: _238  and  _239
REMARK  104  A    between atoms: _238  and  _241
REMARK  105  A    between atoms: _241  and  _242
REMARK  106  A    between atoms: _247  and  _249
REMARK  107  A    between atoms: _249  and  _250
REMARK  108  A    between atoms: _249  and  _252
REMARK  109  A    between atoms: _252  and  _253
REMARK  110  A    between atoms: _256  and  _258
REMARK  111  A    between atoms: _258  and  _259
REMARK  112  A    between atoms: _258  and  _261
REMARK  113  A    between atoms: _261  and  _262
REMARK  114  A    between atoms: _265  and  _267
REMARK  115  A    between atoms: _267  and  _268
REMARK  116  A    between atoms: _267  and  _270
REMARK  117  A    between atoms: _270  and  _271
REMARK  118  A    between atoms: _271  and  _272
REMARK  119  A    between atoms: _272  and  _273
REMARK  120  A    between atoms: _282  and  _284
REMARK  121  A    between atoms: _284  and  _285
REMARK  122  A    between atoms: _284  and  _287
REMARK  123  A    between atoms: _287  and  _288
REMARK  124  A    between atoms: _291  and  _293
REMARK  125  A    between atoms: _293  and  _294
REMARK  126  A    between atoms: _293  and  _296
REMARK  127  A    between atoms: _296  and  _297
REMARK  128  A    between atoms: _300  and  _302
REMARK  129  A    between atoms: _302  and  _303
REMARK  130  A    between atoms: _302  and  _305
REMARK  131  A    between atoms: _308  and  _310
REMARK  132  A    between atoms: _310  and  _311
REMARK  133  A    between atoms: _310  and  _313
REMARK  134  A    between atoms: _313  and  _314
REMARK  135  A    between atoms: _317  and  _319
REMARK  136  A    between atoms: _319  and  _320
REMARK  137  A    between atoms: _319  and  _322
REMARK  138  A    between atoms: _322  and  _323
REMARK  139  A    between atoms: _323  and  _324
REMARK  140  A    between atoms: _327  and  _329
REMARK  141  A    between atoms: _329  and  _330
REMARK  142  A    between atoms: _329  and  _332
REMARK  143  A    between atoms: _332  and  _333
REMARK  144  A    between atoms: _338  and  _339
REMARK  145  A    between atoms: _341  and  _343
REMARK  146  A    between atoms: _343  and  _344
REMARK  147  A    between atoms: _343  and  _346
REMARK  148  A    between atoms: _346  and  _347
REMARK  149  A    between atoms: _347  and  _348
REMARK  150  A    between atoms: _350  and  _352
REMARK  151  A    between atoms: _352  and  _353
REMARK  152  A    between atoms: _352  and  _355
REMARK  153  A    between atoms: _355  and  _356
REMARK  154  A    between atoms: _356  and  _357
REMARK  155  A    between atoms: _360  and  _362
REMARK  156  A    between atoms: _362  and  _363
REMARK  157  A    between atoms: _362  and  _365
REMARK  158  A    between atoms: _365  and  _366
REMARK  159  A    between atoms: _371  and  _373
REMARK  160  A    between atoms: _373  and  _374
REMARK  161  A    between atoms: _376  and  _378
REMARK  162  A    between atoms: _378  and  _379
REMARK  163  A    between atoms: _378  and  _381
REMARK  164  A    between atoms: _381  and  _382
REMARK  165  A    between atoms: _384  and  _386
REMARK  166  A    between atoms: _386  and  _387
REMARK  167  A    between atoms: _386  and  _389
REMARK  168  A    between atoms: _389  and  _390
REMARK  169  A    between atoms: _392  and  _394
REMARK  170  A    between atoms: _394  and  _395
REMARK  171  A    between atoms: _397  and  _399
REMARK  172  A    between atoms: _399  and  _400
REMARK  173  A    between atoms: _399  and  _402
REMARK  174  A    between atoms: _402  and  _403
REMARK  175  A    between atoms: _403  and  _404
REMARK  176  A    between atoms: _406  and  _408
REMARK  177  A    between atoms: _408  and  _409
REMARK  178  A    between atoms: _408  and  _411
REMARK  179  A    between atoms: _411  and  _412
REMARK  180  A    between atoms: _417  and  _418
REMARK  181  A    between atoms: _420  and  _422
REMARK  182  A    between atoms: _422  and  _423
REMARK  183  A    between atoms: _422  and  _425
REMARK  184  A    between atoms: _425  and  _426
REMARK  185  A    between atoms: _429  and  _431
REMARK  186  A    between atoms: _431  and  _432
REMARK  187  A    between atoms: _431  and  _434
REMARK  188  A    between atoms: _434  and  _435
REMARK  189  A    between atoms: _440  and  _441
REMARK  190  A    between atoms: _443  and  _445
REMARK  191  A    between atoms: _445  and  _446
REMARK  192  A    between atoms: _445  and  _448
REMARK  193  A    between atoms: _451  and  _453
REMARK  194  A    between atoms: _453  and  _454
REMARK  195  A    between atoms: _453  and  _456
REMARK  196  A    between atoms: _456  and  _457
REMARK  197  A    between atoms: _462  and  _464
REMARK  198  A    between atoms: _464  and  _465
REMARK  199  A    between atoms: _464  and  _467
REMARK  200  A    between atoms: _467  and  _468
REMARK  201  A    between atoms: _468  and  _469
REMARK  202  A    between atoms: _469  and  _470
REMARK  203  A    between atoms: _479  and  _481
REMARK  204  A    between atoms: _481  and  _482
REMARK  205  A    between atoms: _481  and  _484
REMARK  206  A    between atoms: _484  and  _485
REMARK  207  A    between atoms: _488  and  _490
REMARK  208  A    between atoms: _490  and  _491
REMARK  209  A    between atoms: _490  and  _493
REMARK  210  A    between atoms: _493  and  _494
REMARK  211  A    between atoms: _494  and  _495
REMARK  212  A    between atoms: _495  and  _496
REMARK  213  A    between atoms: _505  and  _507
REMARK  214  A    between atoms: _507  and  _508
REMARK  215  A    between atoms: _507  and  _510
REMARK  216  A    between atoms: _510  and  _511
REMARK  217  A    between atoms: _516  and  _518
REMARK  218  A    between atoms: _518  and  _519
REMARK  219  A    between atoms: _518  and  _521
REMARK  220  A    between atoms: _521  and  _522
REMARK  221  A    between atoms: _525  and  _527
REMARK  222  A    between atoms: _527  and  _528
REMARK  223  A    between atoms: _527  and  _530
REMARK  224  A    between atoms: _530  and  _531
REMARK  225  A    between atoms: _534  and  _536
REMARK  226  A    between atoms: _536  and  _537
REMARK  227  A    between atoms: _536  and  _539
REMARK  228  A    between atoms: _539  and  _540
REMARK  229  A    between atoms: _543  and  _545
REMARK  230  A    between atoms: _545  and  _546
REMARK  231  A    between atoms: _545  and  _548
REMARK  232  A    between atoms: _548  and  _549
REMARK  233  A    between atoms: _554  and  _556
REMARK  234  A    between atoms: _556  and  _557
REMARK  235  A    between atoms: _556  and  _559
REMARK  236  A    between atoms: _559  and  _560
REMARK  237  A    between atoms: _560  and  _561
REMARK  238  A    between atoms: _561  and  _562
REMARK  239  A    between atoms: _562  and  _563
REMARK  240  A    between atoms: _567  and  _569
REMARK  241  A    between atoms: _569  and  _570
REMARK  242  A    between atoms: _569  and  _572
REMARK  243  A    between atoms: _575  and  _577
REMARK  244  A    between atoms: _577  and  _578
REMARK  245  A    between atoms: _577  and  _580
REMARK  246  A    between atoms: _580  and  _581
REMARK  247  A    between atoms: _583  and  _585
REMARK  248  A    between atoms: _585  and  _586
REMARK  249  A    between atoms: _585  and  _588
REMARK  250  A    between atoms: _588  and  _589
REMARK  251  A    between atoms: _592  and  _594
REMARK  252  A    between atoms: _594  and  _595
REMARK  253  A    between atoms: _594  and  _597
REMARK  254  A    between atoms: _597  and  _598
REMARK                            x       y       z     vdW  Elec       q    Type
REMARK                         _______ _______ _______ _____ _____    ______ ____
ROOT
ATOM      1  CA  ILE A   4       8.516 -10.001 -11.491  0.00  0.00    +0.149 C 
ENDROOT
BRANCH   1   4
ATOM      2  C   ALA A   3       6.404 -10.265 -10.294  0.00  0.00    +0.241 C 
ATOM      3  O   ALA A   3       6.356  -9.074  -9.912  0.00  0.00    -0.273 OA
ATOM      4  N   ILE A   4       7.360 -10.764 -11.066  0.00  0.00    -0.297 N 
ATOM      5  H   ILE A   4       7.276 -11.751 -11.382  0.00  0.00    +0.150 HD
BRANCH   2   6
ATOM      6  CA  ALA A   3       5.318 -11.228  -9.913  0.00  0.00    +0.149 C 
ATOM      7  CB  ALA A   3       4.086 -10.995 -10.739  0.00  0.00    +0.031 C 
BRANCH   6  10
ATOM      8  C   VAL A   2       5.546 -11.744  -7.547  0.00  0.00    +0.241 C 
ATOM      9  O   VAL A   2       6.018 -12.879  -7.690  0.00  0.00    -0.273 OA
ATOM     10  N   ALA A   3       5.057 -11.007  -8.519  0.00  0.00    -0.297 N 
ATOM     11  H   ALA A   3       4.440 -10.211  -8.261  0.00  0.00    +0.150 HD
BRANCH   8  12
ATOM     12  CA  VAL A   2       5.412 -11.098  -6.197  0.00  0.00    +0.148 C 
BRANCH  12  15
ATOM     13  C   SER A   1       4.727 -12.087  -4.136  0.00  0.00    +0.241 C 
ATOM     14  O   SER A   1       3.806 -11.280  -4.038  0.00  0.00    -0.274 OA
ATOM     15  N   VAL A   2       5.533 -12.102  -5.173  0.00  0.00    -0.297 N 
ATOM     16  H   VAL A   2       6.260 -12.841  -5.254  0.00  0.00    +0.150 HD
BRANCH  13  17
ATOM     17  CA  SER A   1       4.925 -13.194  -3.128  0.00  0.00    +0.174 C 
BRANCH  17  18
ATOM     18  N   SER A   1       4.761 -12.724  -1.768  0.00  0.00    -0.236 NA
ATOM     19  H   SER A   1       3.900 -12.973  -1.241  0.00  0.00    +0.142 HD
ENDBRANCH  17  18
BRANCH  17  20
ATOM     20  CB  SER A   1       3.934 -14.321  -3.447  0.00  0.00    +0.163 C 
BRANCH  20  21
ATOM     21  OG  SER A   1       4.219 -15.457  -2.681  0.00  0.00    -0.380 OA
ATOM     22  H   SER A   1       4.151 -15.231  -1.720  0.00  0.00    +0.211 HD
ENDBRANCH  20  21
ENDBRANCH  17  20
ENDBRANCH  13  17
ENDBRANCH  12  15
BRANCH  12  23
ATOM     23  CB  VAL A   2       6.480  -9.951  -6.060  0.00  0.00    +0.027 C 
ATOM     24  CG2 VAL A   2       6.191  -9.139  -4.827  0.00  0.00    +0.002 C 
ATOM     25  CG1 VAL A   2       7.884 -10.514  -6.009  0.00  0.00    +0.002 C 
ENDBRANCH  12  23
ENDBRANCH   8  12
ENDBRANCH   6  10
ENDBRANCH   2   6
ENDBRANCH   1   4
BRANCH   1  26
ATOM     26  C   ILE A   4       8.618  -9.982 -13.034  0.00  0.00    +0.241 C 
ATOM     27  N   LYS A   5       8.361  -8.818 -13.611  0.00  0.00    -0.297 N 
ATOM     28  H   LYS A   5       8.061  -8.025 -13.009  0.00  0.00    +0.150 HD
ATOM     29  O   ILE A   4       8.887 -11.005 -13.677  0.00  0.00    -0.273 OA
BRANCH  27  30
ATOM     30  CA  LYS A   5       8.477  -8.591 -15.043  0.00  0.00    +0.149 C 
BRANCH  30  31
ATOM     31  C   LYS A   5       9.876  -8.103 -15.374  0.00  0.00    +0.241 C 
ATOM     32  O   LYS A   5      10.277  -7.039 -14.911  0.00  0.00    -0.273 OA
ATOM     33  N   THR A   6      10.611  -8.868 -16.171  0.00  0.00    -0.296 N 
ATOM     34  H   THR A   6      10.207  -9.757 -16.529  0.00  0.00    +0.150 HD
BRANCH  33  35
ATOM     35  CA  THR A   6      11.966  -8.502 -16.561  0.00  0.00    +0.164 C 
BRANCH  35  36
ATOM     36  C   THR A   6      12.011  -7.880 -17.943  0.00  0.00    +0.229 C 
ATOM     37  O   THR A   6      11.377  -8.368 -18.884  0.00  0.00    -0.286 OA
ENDBRANCH  35  36
BRANCH  35  38
ATOM     38  CB  THR A   6      12.872  -9.712 -16.598  0.00  0.00    +0.136 C 
ATOM     39  CG2 THR A   6      12.911 -10.378 -15.274  0.00  0.00    +0.034 C 
BRANCH  38  40
ATOM     40  OG1 THR A   6      12.350 -10.630 -17.563  0.00  0.00    -0.382 OA
ATOM     41  HG1 THR A   6      12.326 -10.194 -18.452  0.00  0.00    +0.210 HD
ENDBRANCH  38  40
ENDBRANCH  35  38
ENDBRANCH  33  35
ENDBRANCH  30  31
BRANCH  30  42
ATOM     42  CB  LYS A   5       7.470  -7.551 -15.532  0.00  0.00    +0.029 C 
BRANCH  42  43
ATOM     43  CG  LYS A   5       6.142  -8.110 -15.957  0.00  0.00    +0.000 C 
BRANCH  43  44
ATOM     44  CD  LYS A   5       5.249  -7.063 -16.577  0.00  0.00    -0.024 C 
BRANCH  44  45
ATOM     45  CE  LYS A   5       5.675  -6.674 -17.977  0.00  0.00    -0.086 C 
BRANCH  45  46
ATOM     46  NZ  LYS A   5       4.652  -5.803 -18.606  0.00  0.00    +0.380 N 
ATOM     47  HZ1 LYS A   5       4.534  -4.941 -18.036  0.00  0.00    -0.089 HD
ATOM     48  HZ2 LYS A   5       3.747  -6.314 -18.656  0.00  0.00    -0.089 HD
ATOM     49  HZ3 LYS A   5       4.960  -5.546 -19.565  0.00  0.00    -0.089 HD
ENDBRANCH  45  46
ENDBRANCH  44  45
ENDBRANCH  43  44
ENDBRANCH  42  43
ENDBRANCH  30  42
ENDBRANCH  27  30
ENDBRANCH   1  26
BRANCH   1  50
ATOM     50  CB  ILE A   4       9.788 -10.581 -10.856  0.00  0.00    +0.027 C 
ATOM     51  CG2 ILE A   4      11.024  -9.824 -11.334  0.00  0.00    +0.002 C 
BRANCH  50  52
ATOM     52  CG1 ILE A   4       9.708 -10.472  -9.323  0.00  0.00    +0.002 C 
ATOM     53  CD1 ILE A   4      10.234 -11.646  -8.572  0.00  0.00    +0.000 C 
ENDBRANCH  50  52
ENDBRANCH   1  50
TORSDOF 24
REMARK  Name = ../refined-set-2016/4p5z/4p5z_pocket.pdb
REMARK  254 active torsions:
REMARK  status: ('A' for Active; 'I' for Inactive)
REMARK    1  A    between atoms: _1  and  _3
REMARK    2  A    between atoms: _3  and  _4
REMARK    3  A    between atoms: _3  and  _6
REMARK    4  A    between atoms: _9  and  _11
REMARK    5  A    between atoms: _11  and  _12
REMARK    6  A    between atoms: _11  and  _14
REMARK    7  A    between atoms: _17  and  _19
REMARK    8  A    between atoms: _19  and  _20
REMARK    9  A    between atoms: _22  and  _24
REMARK   10  A    between atoms: _24  and  _25
REMARK   11  A    between atoms: _28  and  _30
REMARK   12  A    between atoms: _30  and  _31
REMARK   13  A    between atoms: _33  and  _35
REMARK   14  A    between atoms: _35  and  _36
REMARK   15  A    between atoms: _35  and  _38
REMARK   16  A    between atoms: _38  and  _39
REMARK   17  A    between atoms: _39  and  _40
REMARK   18  A    between atoms: _43  and  _45
REMARK   19  A    between atoms: _45  and  _46
REMARK   20  A    between atoms: _48  and  _50
REMARK   21  A    between atoms: _50  and  _51
REMARK   22  A    between atoms: _50  and  _53
REMARK   23  A    between atoms: _53  and  _54
REMARK   24  A    between atoms: _54  and  _55
REMARK   25  A    between atoms: _58  and  _60
REMARK   26  A    between atoms: _60  and  _61
REMARK   27  A    between atoms: _60  and  _63
REMARK   28  A    between atoms: _66  and  _68
REMARK   29  A    between atoms: _68  and  _69
REMARK   30  A    between atoms: _68  and  _71
REMARK   31  A    between atoms: _73  and  _75
REMARK   32  A    between atoms: _75  and  _76
REMARK   33  A    between atoms: _75  and  _78
REMARK   34  A    between atoms: _78  and  _79
REMARK   35  A    between atoms: _81  and  _83
REMARK   36  A    between atoms: _83  and  _84
REMARK   37  A    between atoms: _86  and  _88
REMARK   38  A    between atoms: _88  and  _89
REMARK   39  A    between atoms: _88  and  _91
REMARK   40  A    between atoms: _91  and  _92
REMARK   41  A    between atoms: _94  and  _96
REMARK   42  A    between atoms: _96  and  _97
REMARK   43  A    between atoms: _96  and  _99
REMARK   44  A    between atoms: _102  and  _104
REMARK   45  A    between atoms: _104  and  _105
REMARK   46  A    between atoms: _108  and  _110
REMARK   47  A    between atoms: _110  and  _111
REMARK   48  A    between atoms: _110  and  _113
REMARK   49  A    between atoms: _113  and  _114
REMARK   50  A    between atoms: _117  and  _119
REMARK   51  A    between atoms: _119  and  _120
REMARK   52  A    between atoms: _119  and  _122
REMARK   53  A    between atoms: _122  and  _123
REMARK   54  A    between atoms: _123  and  _124
REMARK   55  A    between atoms: _124  and  _125
REMARK   56  A    between atoms: _125  and  _126
REMARK   57  A    between atoms: _130  and  _132
REMARK   58  A    between atoms: _132  and  _133
REMARK   59  A    between atoms: _132  and  _135
REMARK   60  A    between atoms: _135  and  _136
REMARK   61  A    between atoms: _139  and  _141
REMARK   62  A    between atoms: _141  and  _142
REMARK   63  A    between atoms: _141  and  _144
REMARK   64  A    between atoms: _144  and  _145
REMARK   65  A    between atoms: _148  and  _150
REMARK   66  A    between atoms: _150  and  _151
REMARK   67  A    between atoms: _150  and  _153
REMARK   68  A    between atoms: _153  and  _154
REMARK   69  A    between atoms: _160  and  _162
REMARK   70  A    between atoms: _162  and  _163
REMARK   71  A    between atoms: _165  and  _167
REMARK   72  A    between atoms: _167  and  _168
REMARK   73  A    between atoms: _167  and  _170
REMARK   74  A    between atoms: _170  and  _171
REMARK   75  A    between atoms: _171  and  _172
REMARK   76  A    between atoms: _175  and  _177
REMARK   77  A    between atoms: _177  and  _178
REMARK   78  A    between atoms: _181  and  _183
REMARK   79  A    between atoms: _183  and  _184
REMARK   80  A    between atoms: _183  and  _186
REMARK   81  A    between atoms: _186  and  _187
REMARK   82  A    between atoms: _189  and  _191
REMARK   83  A    between atoms: _191  and  _192
REMARK   84  A    between atoms: _191  and  _194
REMARK   85  A    between atoms: _194  and  _195
REMARK   86  A    between atoms: _198  and  _200
REMARK   87  A    between atoms: _200  and  _201
REMARK   88  A    between atoms: _200  and  _203
REMARK   89  A    between atoms: _203  and  _204
REMARK   90  A    between atoms: _204  and  _205
REMARK   91  A    between atoms: _207  and  _209
REMARK   92  A    between atoms: _209  and  _210
REMARK   93  A    between atoms: _212  and  _214
REMARK   94  A    between atoms: _214  and  _215
REMARK   95  A    between atoms: _214  and  _217
REMARK   96  A    between atoms: _217  and  _218
REMARK   97  A    between atoms: _218  and  _219
REMARK   98  A    between atoms: _224  and  _226
REMARK   99  A    between atoms: _226  and  _227
REMARK  100  A    between atoms: _226  and  _229
REMARK  101  A    between atoms: _229  and  _230
REMARK  102  A    between atoms: _236  and  _238
REMARK  103  A    between atoms: _238  and  _239
REMARK  104  A    between atoms: _238  and  _241
REMARK  105  A    between atoms: _241  and  _242
REMARK  106  A    between atoms: _247  and  _249
REMARK  107  A    between atoms: _249  and  _250
REMARK  108  A    between atoms: _249  and  _252
REMARK  109  A    between atoms: _252  and  _253
REMARK  110  A    between atoms: _256  and  _258
REMARK  111  A    between atoms: _258  and  _259
REMARK  112  A    between atoms: _258  and  _261
REMARK  113  A    between atoms: _261  and  _262
REMARK  114  A    between atoms: _265  and  _267
REMARK  115  A    between atoms: _267  and  _268
REMARK  116  A    between atoms: _267  and  _270
REMARK  117  A    between atoms: _270  and  _271
REMARK  118  A    between atoms: _271  and  _272
REMARK  119  A    between atoms: _272  and  _273
REMARK  120  A    between atoms: _282  and  _284
REMARK  121  A    between atoms: _284  and  _285
REMARK  122  A    between atoms: _284  and  _287
REMARK  123  A    between atoms: _287  and  _288
REMARK  124  A    between atoms: _291  and  _293
REMARK  125  A    between atoms: _293  and  _294
REMARK  126  A    between atoms: _293  and  _296
REMARK  127  A    between atoms: _296  and  _297
REMARK  128  A    between atoms: _300  and  _302
REMARK  129  A    between atoms: _302  and  _303
REMARK  130  A    between atoms: _302  and  _305
REMARK  131  A    between atoms: _308  and  _310
REMARK  132  A    between atoms: _310  and  _311
REMARK  133  A    between atoms: _310  and  _313
REMARK  134  A    between atoms: _313  and  _314
REMARK  135  A    between atoms: _317  and  _319
REMARK  136  A    between atoms: _319  and  _320
REMARK  137  A    between atoms: _319  and  _322
REMARK  138  A    between atoms: _322  and  _323
REMARK  139  A    between atoms: _323  and  _324
REMARK  140  A    between atoms: _327  and  _329
REMARK  141  A    between atoms: _329  and  _330
REMARK  142  A    between atoms: _329  and  _332
REMARK  143  A    between atoms: _332  and  _333
REMARK  144  A    between atoms: _338  and  _339
REMARK  145  A    between atoms: _341  and  _343
REMARK  146  A    between atoms: _343  and  _344
REMARK  147  A    between atoms: _343  and  _346
REMARK  148  A    between atoms: _346  and  _347
REMARK  149  A    between atoms: _347  and  _348
REMARK  150  A    between atoms: _350  and  _352
REMARK  151  A    between atoms: _352  and  _353
REMARK  152  A    between atoms: _352  and  _355
REMARK  153  A    between atoms: _355  and  _356
REMARK  154  A    between atoms: _356  and  _357
REMARK  155  A    between atoms: _360  and  _362
REMARK  156  A    between atoms: _362  and  _363
REMARK  157  A    between atoms: _362  and  _365
REMARK  158  A    between atoms: _365  and  _366
REMARK  159  A    between atoms: _371  and  _373
REMARK  160  A    between atoms: _373  and  _374
REMARK  161  A    between atoms: _376  and  _378
REMARK  162  A    between atoms: _378  and  _379
REMARK  163  A    between atoms: _378  and  _381
REMARK  164  A    between atoms: _381  and  _382
REMARK  165  A    between atoms: _384  and  _386
REMARK  166  A    between atoms: _386  and  _387
REMARK  167  A    between atoms: _386  and  _389
REMARK  168  A    between atoms: _389  and  _390
REMARK  169  A    between atoms: _392  and  _394
REMARK  170  A    between atoms: _394  and  _395
REMARK  171  A    between atoms: _397  and  _399
REMARK  172  A    between atoms: _399  and  _400
REMARK  173  A    between atoms: _399  and  _402
REMARK  174  A    between atoms: _402  and  _403
REMARK  175  A    between atoms: _403  and  _404
REMARK  176  A    between atoms: _406  and  _408
REMARK  177  A    between atoms: _408  and  _409
REMARK  178  A    between atoms: _408  and  _411
REMARK  179  A    between atoms: _411  and  _412
REMARK  180  A    between atoms: _417  and  _418
REMARK  181  A    between atoms: _420  and  _422
REMARK  182  A    between atoms: _422  and  _423
REMARK  183  A    between atoms: _422  and  _425
REMARK  184  A    between atoms: _425  and  _426
REMARK  185  A    between atoms: _429  and  _431
REMARK  186  A    between atoms: _431  and  _432
REMARK  187  A    between atoms: _431  and  _434
REMARK  188  A    between atoms: _434  and  _435
REMARK  189  A    between atoms: _440  and  _441
REMARK  190  A    between atoms: _443  and  _445
REMARK  191  A    between atoms: _445  and  _446
REMARK  192  A    between atoms: _445  and  _448
REMARK  193  A    between atoms: _451  and  _453
REMARK  194  A    between atoms: _453  and  _454
REMARK  195  A    between atoms: _453  and  _456
REMARK  196  A    between atoms: _456  and  _457
REMARK  197  A    between atoms: _462  and  _464
REMARK  198  A    between atoms: _464  and  _465
REMARK  199  A    between atoms: _464  and  _467
REMARK  200  A    between atoms: _467  and  _468
REMARK  201  A    between atoms: _468  and  _469
REMARK  202  A    between atoms: _469  and  _470
REMARK  203  A    between atoms: _479  and  _481
REMARK  204  A    between atoms: _481  and  _482
REMARK  205  A    between atoms: _481  and  _484
REMARK  206  A    between atoms: _484  and  _485
REMARK  207  A    between atoms: _488  and  _490
REMARK  208  A    between atoms: _490  and  _491
REMARK  209  A    between atoms: _490  and  _493
REMARK  210  A    between atoms: _493  and  _494
REMARK  211  A    between atoms: _494  and  _495
REMARK  212  A    between atoms: _495  and  _496
REMARK  213  A    between atoms: _505  and  _507
REMARK  214  A    between atoms: _507  and  _508
REMARK  215  A    between atoms: _507  and  _510
REMARK  216  A    between atoms: _510  and  _511
REMARK  217  A    between atoms: _516  and  _518
REMARK  218  A    between atoms: _518  and  _519
REMARK  219  A    between atoms: _518  and  _521
REMARK  220  A    between atoms: _521  and  _522
REMARK  221  A    between atoms: _525  and  _527
REMARK  222  A    between atoms: _527  and  _528
REMARK  223  A    between atoms: _527  and  _530
REMARK  224  A    between atoms: _530  and  _531
REMARK  225  A    between atoms: _534  and  _536
REMARK  226  A    between atoms: _536  and  _537
REMARK  227  A    between atoms: _536  and  _539
REMARK  228  A    between atoms: _539  and  _540
REMARK  229  A    between atoms: _543  and  _545
REMARK  230  A    between atoms: _545  and  _546
REMARK  231  A    between atoms: _545  and  _548
REMARK  232  A    between atoms: _548  and  _549
REMARK  233  A    between atoms: _554  and  _556
REMARK  234  A    between atoms: _556  and  _557
REMARK  235  A    between atoms: _556  and  _559
REMARK  236  A    between atoms: _559  and  _560
REMARK  237  A    between atoms: _560  and  _561
REMARK  238  A    between atoms: _561  and  _562
REMARK  239  A    between atoms: _562  and  _563
REMARK  240  A    between atoms: _567  and  _569
REMARK  241  A    between atoms: _569  and  _570
REMARK  242  A    between atoms: _569  and  _572
REMARK  243  A    between atoms: _575  and  _577
REMARK  244  A    between atoms: _577  and  _578
REMARK  245  A    between atoms: _577  and  _580
REMARK  246  A    between atoms: _580  and  _581
REMARK  247  A    between atoms: _583  and  _585
REMARK  248  A    between atoms: _585  and  _586
REMARK  249  A    between atoms: _585  and  _588
REMARK  250  A    between atoms: _588  and  _589
REMARK  251  A    between atoms: _592  and  _594
REMARK  252  A    between atoms: _594  and  _595
REMARK  253  A    between atoms: _594  and  _597
REMARK  254  A    between atoms: _597  and  _598
REMARK                            x       y       z     vdW  Elec       q    Type
REMARK                         _______ _______ _______ _____ _____    ______ ____
ROOT
ATOM      1  C   ASP A   1       7.614   0.941 -21.513  0.00  0.00    +0.239 C 
ATOM      2  O   ASP A   1       6.549   0.866 -20.896  0.00  0.00    -0.274 OA
ATOM      3  N   PHE A   2       8.617   0.104 -21.310  0.00  0.00    -0.298 N 
ATOM      4  H   PHE A   2       9.468   0.159 -21.906  0.00  0.00    +0.150 HD
ENDROOT
BRANCH   1   5
ATOM      5  CA  ASP A   1       7.830   1.979 -22.603  0.00  0.00    +0.156 C 
BRANCH   5   6
ATOM      6  N   ASP A   1       9.138   2.593 -22.562  0.00  0.00    -0.238 NA
ATOM      7  H   ASP A   1       9.813   2.364 -23.319  0.00  0.00    +0.142 HD
ENDBRANCH   5   6
BRANCH   5   8
ATOM      8  CB  ASP A   1       7.638   1.322 -23.958  0.00  0.00    +0.140 C 
BRANCH   8   9
ATOM      9  CG  ASP A   1       7.375   2.335 -25.072  0.00  0.00    +0.367 C 
ATOM     10  OD2 ASP A   1       7.538   3.560 -24.837  0.00  0.00    -0.246 OA
ATOM     11  OD1 ASP A   1       7.014   1.891 -26.186  0.00  0.00    -0.246 OA
ENDBRANCH   8   9
ENDBRANCH   5   8
ENDBRANCH   1   5
BRANCH   3  12
ATOM     12  CA  PHE A   2       8.534  -0.887 -20.262  0.00  0.00    +0.141 C 
BRANCH  12  13
ATOM     13  C   PHE A   2       8.229  -0.201 -18.932  0.00  0.00    +0.227 C 
ATOM     14  O   PHE A   2       7.297  -0.566 -18.229  0.00  0.00    -0.286 OA
ENDBRANCH  12  13
BRANCH  12  15
ATOM     15  CB  PHE A   2       9.835  -1.670 -20.181  0.00  0.00    +0.054 C 
BRANCH  15  16
ATOM     16  CG  PHE A   2       9.849  -2.716 -19.104  0.00  0.00    -0.020 A 
ATOM     17  CD2 PHE A   2      10.641  -2.546 -17.990  0.00  0.00    -0.004 A 
ATOM     18  CE2 PHE A   2      10.692  -3.493 -17.005  0.00  0.00    -0.000 A 
ATOM     19  CZ  PHE A   2       9.949  -4.634 -17.115  0.00  0.00    -0.000 A 
ATOM     20  CE1 PHE A   2       9.135  -4.831 -18.231  0.00  0.00    -0.000 A 
ATOM     21  CD1 PHE A   2       9.096  -3.871 -19.222  0.00  0.00    -0.004 A 
ENDBRANCH  15  16
ENDBRANCH  12  15
ENDBRANCH   3  12
TORSDOF 8
REMARK  Name = ../refined-set-2016/4p5z/4p5z_pocket.pdb
REMARK  254 active torsions:
REMARK  status: ('A' for Active; 'I' for Inactive)
REMARK    1  A    between atoms: _1  and  _3
REMARK    2  A    between atoms: _3  and  _4
REMARK    3  A    between atoms: _3  and  _6
REMARK    4  A    between atoms: _9  and  _11
REMARK    5  A    between atoms: _11  and  _12
REMARK    6  A    between atoms: _11  and  _14
REMARK    7  A    between atoms: _17  and  _19
REMARK    8  A    between atoms: _19  and  _20
REMARK    9  A    between atoms: _22  and  _24
REMARK   10  A    between atoms: _24  and  _25
REMARK   11  A    between atoms: _28  and  _30
REMARK   12  A    between atoms: _30  and  _31
REMARK   13  A    between atoms: _33  and  _35
REMARK   14  A    between atoms: _35  and  _36
REMARK   15  A    between atoms: _35  and  _38
REMARK   16  A    between atoms: _38  and  _39
REMARK   17  A    between atoms: _39  and  _40
REMARK   18  A    between atoms: _43  and  _45
REMARK   19  A    between atoms: _45  and  _46
REMARK   20  A    between atoms: _48  and  _50
REMARK   21  A    between atoms: _50  and  _51
REMARK   22  A    between atoms: _50  and  _53
REMARK   23  A    between atoms: _53  and  _54
REMARK   24  A    between atoms: _54  and  _55
REMARK   25  A    between atoms: _58  and  _60
REMARK   26  A    between atoms: _60  and  _61
REMARK   27  A    between atoms: _60  and  _63
REMARK   28  A    between atoms: _66  and  _68
REMARK   29  A    between atoms: _68  and  _69
REMARK   30  A    between atoms: _68  and  _71
REMARK   31  A    between atoms: _73  and  _75
REMARK   32  A    between atoms: _75  and  _76
REMARK   33  A    between atoms: _75  and  _78
REMARK   34  A    between atoms: _78  and  _79
REMARK   35  A    between atoms: _81  and  _83
REMARK   36  A    between atoms: _83  and  _84
REMARK   37  A    between atoms: _86  and  _88
REMARK   38  A    between atoms: _88  and  _89
REMARK   39  A    between atoms: _88  and  _91
REMARK   40  A    between atoms: _91  and  _92
REMARK   41  A    between atoms: _94  and  _96
REMARK   42  A    between atoms: _96  and  _97
REMARK   43  A    between atoms: _96  and  _99
REMARK   44  A    between atoms: _102  and  _104
REMARK   45  A    between atoms: _104  and  _105
REMARK   46  A    between atoms: _108  and  _110
REMARK   47  A    between atoms: _110  and  _111
REMARK   48  A    between atoms: _110  and  _113
REMARK   49  A    between atoms: _113  and  _114
REMARK   50  A    between atoms: _117  and  _119
REMARK   51  A    between atoms: _119  and  _120
REMARK   52  A    between atoms: _119  and  _122
REMARK   53  A    between atoms: _122  and  _123
REMARK   54  A    between atoms: _123  and  _124
REMARK   55  A    between atoms: _124  and  _125
REMARK   56  A    between atoms: _125  and  _126
REMARK   57  A    between atoms: _130  and  _132
REMARK   58  A    between atoms: _132  and  _133
REMARK   59  A    between atoms: _132  and  _135
REMARK   60  A    between atoms: _135  and  _136
REMARK   61  A    between atoms: _139  and  _141
REMARK   62  A    between atoms: _141  and  _142
REMARK   63  A    between atoms: _141  and  _144
REMARK   64  A    between atoms: _144  and  _145
REMARK   65  A    between atoms: _148  and  _150
REMARK   66  A    between atoms: _150  and  _151
REMARK   67  A    between atoms: _150  and  _153
REMARK   68  A    between atoms: _153  and  _154
REMARK   69  A    between atoms: _160  and  _162
REMARK   70  A    between atoms: _162  and  _163
REMARK   71  A    between atoms: _165  and  _167
REMARK   72  A    between atoms: _167  and  _168
REMARK   73  A    between atoms: _167  and  _170
REMARK   74  A    between atoms: _170  and  _171
REMARK   75  A    between atoms: _171  and  _172
REMARK   76  A    between atoms: _175  and  _177
REMARK   77  A    between atoms: _177  and  _178
REMARK   78  A    between atoms: _181  and  _183
REMARK   79  A    between atoms: _183  and  _184
REMARK   80  A    between atoms: _183  and  _186
REMARK   81  A    between atoms: _186  and  _187
REMARK   82  A    between atoms: _189  and  _191
REMARK   83  A    between atoms: _191  and  _192
REMARK   84  A    between atoms: _191  and  _194
REMARK   85  A    between atoms: _194  and  _195
REMARK   86  A    between atoms: _198  and  _200
REMARK   87  A    between atoms: _200  and  _201
REMARK   88  A    between atoms: _200  and  _203
REMARK   89  A    between atoms: _203  and  _204
REMARK   90  A    between atoms: _204  and  _205
REMARK   91  A    between atoms: _207  and  _209
REMARK   92  A    between atoms: _209  and  _210
REMARK   93  A    between atoms: _212  and  _214
REMARK   94  A    between atoms: _214  and  _215
REMARK   95  A    between atoms: _214  and  _217
REMARK   96  A    between atoms: _217  and  _218
REMARK   97  A    between atoms: _218  and  _219
REMARK   98  A    between atoms: _224  and  _226
REMARK   99  A    between atoms: _226  and  _227
REMARK  100  A    between atoms: _226  and  _229
REMARK  101  A    between atoms: _229  and  _230
REMARK  102  A    between atoms: _236  and  _238
REMARK  103  A    between atoms: _238  and  _239
REMARK  104  A    between atoms: _238  and  _241
REMARK  105  A    between atoms: _241  and  _242
REMARK  106  A    between atoms: _247  and  _249
REMARK  107  A    between atoms: _249  and  _250
REMARK  108  A    between atoms: _249  and  _252
REMARK  109  A    between atoms: _252  and  _253
REMARK  110  A    between atoms: _256  and  _258
REMARK  111  A    between atoms: _258  and  _259
REMARK  112  A    between atoms: _258  and  _261
REMARK  113  A    between atoms: _261  and  _262
REMARK  114  A    between atoms: _265  and  _267
REMARK  115  A    between atoms: _267  and  _268
REMARK  116  A    between atoms: _267  and  _270
REMARK  117  A    between atoms: _270  and  _271
REMARK  118  A    between atoms: _271  and  _272
REMARK  119  A    between atoms: _272  and  _273
REMARK  120  A    between atoms: _282  and  _284
REMARK  121  A    between atoms: _284  and  _285
REMARK  122  A    between atoms: _284  and  _287
REMARK  123  A    between atoms: _287  and  _288
REMARK  124  A    between atoms: _291  and  _293
REMARK  125  A    between atoms: _293  and  _294
REMARK  126  A    between atoms: _293  and  _296
REMARK  127  A    between atoms: _296  and  _297
REMARK  128  A    between atoms: _300  and  _302
REMARK  129  A    between atoms: _302  and  _303
REMARK  130  A    between atoms: _302  and  _305
REMARK  131  A    between atoms: _308  and  _310
REMARK  132  A    between atoms: _310  and  _311
REMARK  133  A    between atoms: _310  and  _313
REMARK  134  A    between atoms: _313  and  _314
REMARK  135  A    between atoms: _317  and  _319
REMARK  136  A    between atoms: _319  and  _320
REMARK  137  A    between atoms: _319  and  _322
REMARK  138  A    between atoms: _322  and  _323
REMARK  139  A    between atoms: _323  and  _324
REMARK  140  A    between atoms: _327  and  _329
REMARK  141  A    between atoms: _329  and  _330
REMARK  142  A    between atoms: _329  and  _332
REMARK  143  A    between atoms: _332  and  _333
REMARK  144  A    between atoms: _338  and  _339
REMARK  145  A    between atoms: _341  and  _343
REMARK  146  A    between atoms: _343  and  _344
REMARK  147  A    between atoms: _343  and  _346
REMARK  148  A    between atoms: _346  and  _347
REMARK  149  A    between atoms: _347  and  _348
REMARK  150  A    between atoms: _350  and  _352
REMARK  151  A    between atoms: _352  and  _353
REMARK  152  A    between atoms: _352  and  _355
REMARK  153  A    between atoms: _355  and  _356
REMARK  154  A    between atoms: _356  and  _357
REMARK  155  A    between atoms: _360  and  _362
REMARK  156  A    between atoms: _362  and  _363
REMARK  157  A    between atoms: _362  and  _365
REMARK  158  A    between atoms: _365  and  _366
REMARK  159  A    between atoms: _371  and  _373
REMARK  160  A    between atoms: _373  and  _374
REMARK  161  A    between atoms: _376  and  _378
REMARK  162  A    between atoms: _378  and  _379
REMARK  163  A    between atoms: _378  and  _381
REMARK  164  A    between atoms: _381  and  _382
REMARK  165  A    between atoms: _384  and  _386
REMARK  166  A    between atoms: _386  and  _387
REMARK  167  A    between atoms: _386  and  _389
REMARK  168  A    between atoms: _389  and  _390
REMARK  169  A    between atoms: _392  and  _394
REMARK  170  A    between atoms: _394  and  _395
REMARK  171  A    between atoms: _397  and  _399
REMARK  172  A    between atoms: _399  and  _400
REMARK  173  A    between atoms: _399  and  _402
REMARK  174  A    between atoms: _402  and  _403
REMARK  175  A    between atoms: _403  and  _404
REMARK  176  A    between atoms: _406  and  _408
REMARK  177  A    between atoms: _408  and  _409
REMARK  178  A    between atoms: _408  and  _411
REMARK  179  A    between atoms: _411  and  _412
REMARK  180  A    between atoms: _417  and  _418
REMARK  181  A    between atoms: _420  and  _422
REMARK  182  A    between atoms: _422  and  _423
REMARK  183  A    between atoms: _422  and  _425
REMARK  184  A    between atoms: _425  and  _426
REMARK  185  A    between atoms: _429  and  _431
REMARK  186  A    between atoms: _431  and  _432
REMARK  187  A    between atoms: _431  and  _434
REMARK  188  A    between atoms: _434  and  _435
REMARK  189  A    between atoms: _440  and  _441
REMARK  190  A    between atoms: _443  and  _445
REMARK  191  A    between atoms: _445  and  _446
REMARK  192  A    between atoms: _445  and  _448
REMARK  193  A    between atoms: _451  and  _453
REMARK  194  A    between atoms: _453  and  _454
REMARK  195  A    between atoms: _453  and  _456
REMARK  196  A    between atoms: _456  and  _457
REMARK  197  A    between atoms: _462  and  _464
REMARK  198  A    between atoms: _464  and  _465
REMARK  199  A    between atoms: _464  and  _467
REMARK  200  A    between atoms: _467  and  _468
REMARK  201  A    between atoms: _468  and  _469
REMARK  202  A    between atoms: _469  and  _470
REMARK  203  A    between atoms: _479  and  _481
REMARK  204  A    between atoms: _481  and  _482
REMARK  205  A    between atoms: _481  and  _484
REMARK  206  A    between atoms: _484  and  _485
REMARK  207  A    between atoms: _488  and  _490
REMARK  208  A    between atoms: _490  and  _491
REMARK  209  A    between atoms: _490  and  _493
REMARK  210  A    between atoms: _493  and  _494
REMARK  211  A    between atoms: _494  and  _495
REMARK  212  A    between atoms: _495  and  _496
REMARK  213  A    between atoms: _505  and  _507
REMARK  214  A    between atoms: _507  and  _508
REMARK  215  A    between atoms: _507  and  _510
REMARK  216  A    between atoms: _510  and  _511
REMARK  217  A    between atoms: _516  and  _518
REMARK  218  A    between atoms: _518  and  _519
REMARK  219  A    between atoms: _518  and  _521
REMARK  220  A    between atoms: _521  and  _522
REMARK  221  A    between atoms: _525  and  _527
REMARK  222  A    between atoms: _527  and  _528
REMARK  223  A    between atoms: _527  and  _530
REMARK  224  A    between atoms: _530  and  _531
REMARK  225  A    between atoms: _534  and  _536
REMARK  226  A    between atoms: _536  and  _537
REMARK  227  A    between atoms: _536  and  _539
REMARK  228  A    between atoms: _539  and  _540
REMARK  229  A    between atoms: _543  and  _545
REMARK  230  A    between atoms: _545  and  _546
REMARK  231  A    between atoms: _545  and  _548
REMARK  232  A    between atoms: _548  and  _549
REMARK  233  A    between atoms: _554  and  _556
REMARK  234  A    between atoms: _556  and  _557
REMARK  235  A    between atoms: _556  and  _559
REMARK  236  A    between atoms: _559  and  _560
REMARK  237  A    between atoms: _560  and  _561
REMARK  238  A    between atoms: _561  and  _562
REMARK  239  A    between atoms: _562  and  _563
REMARK  240  A    between atoms: _567  and  _569
REMARK  241  A    between atoms: _569  and  _570
REMARK  242  A    between atoms: _569  and  _572
REMARK  243  A    between atoms: _575  and  _577
REMARK  244  A    between atoms: _577  and  _578
REMARK  245  A    between atoms: _577  and  _580
REMARK  246  A    between atoms: _580  and  _581
REMARK  247  A    between atoms: _583  and  _585
REMARK  248  A    between atoms: _585  and  _586
REMARK  249  A    between atoms: _585  and  _588
REMARK  250  A    between atoms: _588  and  _589
REMARK  251  A    between atoms: _592  and  _594
REMARK  252  A    between atoms: _594  and  _595
REMARK  253  A    between atoms: _594  and  _597
REMARK  254  A    between atoms: _597  and  _598
REMARK                            x       y       z     vdW  Elec       q    Type
REMARK                         _______ _______ _______ _____ _____    ______ ____
ROOT
ATOM      1  C   ILE A   5       0.447   3.658 -13.532  0.00  0.00    +0.241 C 
ATOM      2  O   ILE A   5      -0.289   4.168 -12.667  0.00  0.00    -0.273 OA
ATOM      3  N   MET A   6       0.876   2.409 -13.459  0.00  0.00    -0.297 N 
ATOM      4  H   MET A   6       1.520   2.051 -14.193  0.00  0.00    +0.150 HD
ENDROOT
BRANCH   3   5
ATOM      5  CA  MET A   6       0.470   1.524 -12.380  0.00  0.00    +0.149 C 
BRANCH   5   6
ATOM      6  C   MET A   6       0.738   2.132 -11.016  0.00  0.00    +0.241 C 
ATOM      7  O   MET A   6      -0.023   1.953 -10.079  0.00  0.00    -0.273 OA
ATOM      8  N   GLY A   7       1.859   2.818 -10.878  0.00  0.00    -0.295 N 
ATOM      9  H   GLY A   7       2.477   2.976 -11.700  0.00  0.00    +0.150 HD
BRANCH   8  10
ATOM     10  CA  GLY A   7       2.227   3.350  -9.581  0.00  0.00    +0.176 C 
BRANCH  10  11
ATOM     11  C   GLY A   7       1.285   4.458  -9.106  0.00  0.00    +0.243 C 
ATOM     12  O   GLY A   7       1.341   4.884  -7.958  0.00  0.00    -0.273 OA
ATOM     13  N   GLN A   8       0.406   4.925  -9.989  0.00  0.00    -0.297 N 
ATOM     14  H   GLN A   8       0.364   4.511 -10.942  0.00  0.00    +0.150 HD
BRANCH  13  15
ATOM     15  CA  GLN A   8      -0.497   6.009  -9.635  0.00  0.00    +0.149 C 
BRANCH  15  16
ATOM     16  C   GLN A   8      -1.749   5.486  -8.983  0.00  0.00    +0.241 C 
ATOM     17  O   GLN A   8      -2.479   6.250  -8.366  0.00  0.00    -0.273 OA
ATOM     18  N   PHE A   9      -1.988   4.171  -9.119  0.00  0.00    -0.298 N 
ATOM     19  H   PHE A   9      -1.287   3.588  -9.620  0.00  0.00    +0.150 HD
BRANCH  18  20
ATOM     20  CA  PHE A   9      -3.184   3.524  -8.597  0.00  0.00    +0.141 C 
BRANCH  20  21
ATOM     21  C   PHE A   9      -2.896   2.770  -7.307  0.00  0.00    +0.227 C 
ATOM     22  O   PHE A   9      -1.859   2.123  -7.163  0.00  0.00    -0.286 OA
ENDBRANCH  20  21
BRANCH  20  23
ATOM     23  CB  PHE A   9      -3.758   2.604  -9.677  0.00  0.00    +0.054 C 
BRANCH  23  24
ATOM     24  CG  PHE A   9      -3.915   3.288 -11.006  0.00  0.00    -0.020 A 
ATOM     25  CD2 PHE A   9      -4.446   4.571 -11.082  0.00  0.00    -0.004 A 
ATOM     26  CE2 PHE A   9      -4.575   5.206 -12.303  0.00  0.00    -0.000 A 
ATOM     27  CZ  PHE A   9      -4.133   4.572 -13.462  0.00  0.00    -0.000 A 
ATOM     28  CE1 PHE A   9      -3.580   3.336 -13.379  0.00  0.00    -0.000 A 
ATOM     29  CD1 PHE A   9      -3.466   2.700 -12.162  0.00  0.00    -0.004 A 
ENDBRANCH  23  24
ENDBRANCH  20  23
ENDBRANCH  18  20
ENDBRANCH  15  16
BRANCH  15  30
ATOM     30  CB  GLN A   8      -0.837   6.833 -10.881  0.00  0.00    +0.039 C 
BRANCH  30  31
ATOM     31  CG  GLN A   8       0.415   7.583 -11.376  0.00  0.00    +0.087 C 
BRANCH  31  32
ATOM     32  CD  GLN A   8       0.126   8.592 -12.461  0.00  0.00    +0.219 C 
ATOM     33  OE1 GLN A   8      -0.563   9.594 -12.230  0.00  0.00    -0.275 OA
ATOM     34  NE2 GLN A   8       0.648   8.329 -13.664  0.00  0.00    -0.329 N 
ATOM     35 HE21 GLN A   8       1.221   7.473 -13.806  0.00  0.00    +0.145 HD
ATOM     36 HE22 GLN A   8       0.481   8.981 -14.457  0.00  0.00    +0.145 HD
ENDBRANCH  31  32
ENDBRANCH  30  31
ENDBRANCH  15  30
ENDBRANCH  13  15
ENDBRANCH  10  11
ENDBRANCH   8  10
ENDBRANCH   5   6
BRANCH   5  37
ATOM     37  CB  MET A   6       1.222   0.187 -12.424  0.00  0.00    +0.041 C 
BRANCH  37  38
ATOM     38  CG  MET A   6       1.045  -0.682 -13.570  0.00  0.00    +0.060 C 
BRANCH  38  39
ATOM     39  SD  MET A   6       2.046  -2.184 -13.269  0.00  0.00    -0.139 S 
ATOM     40  CE  MET A   6       1.373  -2.718 -11.681  0.00  0.00    +0.069 C 
ENDBRANCH  38  39
ENDBRANCH  37  38
ENDBRANCH   5  37
ENDBRANCH   3   5
BRANCH   1  41
ATOM     41  CA  ILE A   5       0.992   4.470 -14.715  0.00  0.00    +0.149 C 
BRANCH  41  44
ATOM     42  C   SER A   4       3.160   5.114 -13.839  0.00  0.00    +0.243 C 
ATOM     43  O   SER A   4       2.654   5.745 -12.932  0.00  0.00    -0.273 OA
ATOM     44  N   ILE A   5       2.448   4.423 -14.719  0.00  0.00    -0.297 N 
ATOM     45  H   ILE A   5       2.938   3.837 -15.425  0.00  0.00    +0.150 HD
BRANCH  42  46
ATOM     46  CA  SER A   4       4.664   5.057 -14.003  0.00  0.00    +0.178 C 
BRANCH  46  49
ATOM     47  C   ALA A   3       4.811   2.691 -13.580  0.00  0.00    +0.241 C 
ATOM     48  O   ALA A   3       4.325   2.856 -12.449  0.00  0.00    -0.273 OA
ATOM     49  N   SER A   4       5.036   3.712 -14.404  0.00  0.00    -0.295 N 
ATOM     50  H   SER A   4       5.477   3.547 -15.331  0.00  0.00    +0.150 HD
BRANCH  47  51
ATOM     51  CA  ALA A   3       5.180   1.294 -14.083  0.00  0.00    +0.149 C 
ATOM     52  CB  ALA A   3       6.596   0.940 -13.657  0.00  0.00    +0.031 C 
BRANCH  51  55
ATOM     53  C   GLU A   2       3.838   1.118 -16.100  0.00  0.00    +0.241 C 
ATOM     54  O   GLU A   2       2.813   1.172 -15.426  0.00  0.00    -0.273 OA
ATOM     55  N   ALA A   3       5.043   1.181 -15.537  0.00  0.00    -0.297 N 
ATOM     56  H   ALA A   3       5.894   1.150 -16.134  0.00  0.00    +0.150 HD
BRANCH  53  57
ATOM     57  CA  GLU A   2       3.757   1.029 -17.643  0.00  0.00    +0.149 C 
BRANCH  57  60
ATOM     58  C   GLY A   1       4.865   3.159 -17.952  0.00  0.00    +0.240 C 
ATOM     59  O   GLY A   1       4.033   3.744 -17.270  0.00  0.00    -0.274 OA
ATOM     60  N   GLU A   2       4.766   1.873 -18.252  0.00  0.00    -0.297 N 
ATOM     61  H   GLU A   2       5.427   1.459 -18.940  0.00  0.00    +0.150 HD
BRANCH  58  62
ATOM     62  CA  GLY A   1       6.086   3.872 -18.495  0.00  0.00    +0.169 C 
BRANCH  62  63
ATOM     63  N   GLY A   1       7.217   2.962 -18.462  0.00  0.00    -0.236 NA
ATOM     64  H   GLY A   1       7.703   2.715 -19.348  0.00  0.00    +0.142 HD
ENDBRANCH  62  63
ENDBRANCH  58  62
ENDBRANCH  57  60
BRANCH  57  65
ATOM     65  CB  GLU A   2       3.925  -0.409 -18.154  0.00  0.00    +0.041 C 
BRANCH  65  66
ATOM     66  CG  GLU A   2       3.412  -1.474 -17.224  0.00  0.00    +0.116 C 
BRANCH  66  67
ATOM     67  CD  GLU A   2       3.398  -2.868 -17.857  0.00  0.00    +0.365 C 
ATOM     68  OE2 GLU A   2       4.372  -3.609 -17.664  0.00  0.00    -0.246 OA
ATOM     69  OE1 GLU A   2       2.419  -3.233 -18.555  0.00  0.00    -0.246 OA
ENDBRANCH  66  67
ENDBRANCH  65  66
ENDBRANCH  57  65
ENDBRANCH  53  57
ENDBRANCH  51  55
ENDBRANCH  47  51
ENDBRANCH  46  49
BRANCH  46  70
ATOM     70  CB  SER A   4       5.149   6.078 -15.024  0.00  0.00    +0.166 C 
BRANCH  70  71
ATOM     71  OG  SER A   4       6.564   6.105 -15.004  0.00  0.00    -0.380 OA
ATOM     72  H   SER A   4       6.890   6.766 -15.665  0.00  0.00    +0.211 HD
ENDBRANCH  70  71
ENDBRANCH  46  70
ENDBRANCH  42  46
ENDBRANCH  41  44
BRANCH  41  73
ATOM     73  CB  ILE A   5       0.434   3.948 -16.058  0.00  0.00    +0.027 C 
ATOM     74  CG2 ILE A   5      -1.053   3.700 -15.952  0.00  0.00    +0.002 C 
BRANCH  73  75
ATOM     75  CG1 ILE A   5       0.740   4.965 -17.159  0.00  0.00    +0.002 C 
ATOM     76  CD1 ILE A   5       0.631   4.391 -18.574  0.00  0.00    +0.000 C 
ENDBRANCH  73  75
ENDBRANCH  41  73
ENDBRANCH   1  41
TORSDOF 33
REMARK  Name = ../refined-set-2016/4p5z/4p5z_pocket.pdb
REMARK  254 active torsions:
REMARK  status: ('A' for Active; 'I' for Inactive)
REMARK    1  A    between atoms: _1  and  _3
REMARK    2  A    between atoms: _3  and  _4
REMARK    3  A    between atoms: _3  and  _6
REMARK    4  A    between atoms: _9  and  _11
REMARK    5  A    between atoms: _11  and  _12
REMARK    6  A    between atoms: _11  and  _14
REMARK    7  A    between atoms: _17  and  _19
REMARK    8  A    between atoms: _19  and  _20
REMARK    9  A    between atoms: _22  and  _24
REMARK   10  A    between atoms: _24  and  _25
REMARK   11  A    between atoms: _28  and  _30
REMARK   12  A    between atoms: _30  and  _31
REMARK   13  A    between atoms: _33  and  _35
REMARK   14  A    between atoms: _35  and  _36
REMARK   15  A    between atoms: _35  and  _38
REMARK   16  A    between atoms: _38  and  _39
REMARK   17  A    between atoms: _39  and  _40
REMARK   18  A    between atoms: _43  and  _45
REMARK   19  A    between atoms: _45  and  _46
REMARK   20  A    between atoms: _48  and  _50
REMARK   21  A    between atoms: _50  and  _51
REMARK   22  A    between atoms: _50  and  _53
REMARK   23  A    between atoms: _53  and  _54
REMARK   24  A    between atoms: _54  and  _55
REMARK   25  A    between atoms: _58  and  _60
REMARK   26  A    between atoms: _60  and  _61
REMARK   27  A    between atoms: _60  and  _63
REMARK   28  A    between atoms: _66  and  _68
REMARK   29  A    between atoms: _68  and  _69
REMARK   30  A    between atoms: _68  and  _71
REMARK   31  A    between atoms: _73  and  _75
REMARK   32  A    between atoms: _75  and  _76
REMARK   33  A    between atoms: _75  and  _78
REMARK   34  A    between atoms: _78  and  _79
REMARK   35  A    between atoms: _81  and  _83
REMARK   36  A    between atoms: _83  and  _84
REMARK   37  A    between atoms: _86  and  _88
REMARK   38  A    between atoms: _88  and  _89
REMARK   39  A    between atoms: _88  and  _91
REMARK   40  A    between atoms: _91  and  _92
REMARK   41  A    between atoms: _94  and  _96
REMARK   42  A    between atoms: _96  and  _97
REMARK   43  A    between atoms: _96  and  _99
REMARK   44  A    between atoms: _102  and  _104
REMARK   45  A    between atoms: _104  and  _105
REMARK   46  A    between atoms: _108  and  _110
REMARK   47  A    between atoms: _110  and  _111
REMARK   48  A    between atoms: _110  and  _113
REMARK   49  A    between atoms: _113  and  _114
REMARK   50  A    between atoms: _117  and  _119
REMARK   51  A    between atoms: _119  and  _120
REMARK   52  A    between atoms: _119  and  _122
REMARK   53  A    between atoms: _122  and  _123
REMARK   54  A    between atoms: _123  and  _124
REMARK   55  A    between atoms: _124  and  _125
REMARK   56  A    between atoms: _125  and  _126
REMARK   57  A    between atoms: _130  and  _132
REMARK   58  A    between atoms: _132  and  _133
REMARK   59  A    between atoms: _132  and  _135
REMARK   60  A    between atoms: _135  and  _136
REMARK   61  A    between atoms: _139  and  _141
REMARK   62  A    between atoms: _141  and  _142
REMARK   63  A    between atoms: _141  and  _144
REMARK   64  A    between atoms: _144  and  _145
REMARK   65  A    between atoms: _148  and  _150
REMARK   66  A    between atoms: _150  and  _151
REMARK   67  A    between atoms: _150  and  _153
REMARK   68  A    between atoms: _153  and  _154
REMARK   69  A    between atoms: _160  and  _162
REMARK   70  A    between atoms: _162  and  _163
REMARK   71  A    between atoms: _165  and  _167
REMARK   72  A    between atoms: _167  and  _168
REMARK   73  A    between atoms: _167  and  _170
REMARK   74  A    between atoms: _170  and  _171
REMARK   75  A    between atoms: _171  and  _172
REMARK   76  A    between atoms: _175  and  _177
REMARK   77  A    between atoms: _177  and  _178
REMARK   78  A    between atoms: _181  and  _183
REMARK   79  A    between atoms: _183  and  _184
REMARK   80  A    between atoms: _183  and  _186
REMARK   81  A    between atoms: _186  and  _187
REMARK   82  A    between atoms: _189  and  _191
REMARK   83  A    between atoms: _191  and  _192
REMARK   84  A    between atoms: _191  and  _194
REMARK   85  A    between atoms: _194  and  _195
REMARK   86  A    between atoms: _198  and  _200
REMARK   87  A    between atoms: _200  and  _201
REMARK   88  A    between atoms: _200  and  _203
REMARK   89  A    between atoms: _203  and  _204
REMARK   90  A    between atoms: _204  and  _205
REMARK   91  A    between atoms: _207  and  _209
REMARK   92  A    between atoms: _209  and  _210
REMARK   93  A    between atoms: _212  and  _214
REMARK   94  A    between atoms: _214  and  _215
REMARK   95  A    between atoms: _214  and  _217
REMARK   96  A    between atoms: _217  and  _218
REMARK   97  A    between atoms: _218  and  _219
REMARK   98  A    between atoms: _224  and  _226
REMARK   99  A    between atoms: _226  and  _227
REMARK  100  A    between atoms: _226  and  _229
REMARK  101  A    between atoms: _229  and  _230
REMARK  102  A    between atoms: _236  and  _238
REMARK  103  A    between atoms: _238  and  _239
REMARK  104  A    between atoms: _238  and  _241
REMARK  105  A    between atoms: _241  and  _242
REMARK  106  A    between atoms: _247  and  _249
REMARK  107  A    between atoms: _249  and  _250
REMARK  108  A    between atoms: _249  and  _252
REMARK  109  A    between atoms: _252  and  _253
REMARK  110  A    between atoms: _256  and  _258
REMARK  111  A    between atoms: _258  and  _259
REMARK  112  A    between atoms: _258  and  _261
REMARK  113  A    between atoms: _261  and  _262
REMARK  114  A    between atoms: _265  and  _267
REMARK  115  A    between atoms: _267  and  _268
REMARK  116  A    between atoms: _267  and  _270
REMARK  117  A    between atoms: _270  and  _271
REMARK  118  A    between atoms: _271  and  _272
REMARK  119  A    between atoms: _272  and  _273
REMARK  120  A    between atoms: _282  and  _284
REMARK  121  A    between atoms: _284  and  _285
REMARK  122  A    between atoms: _284  and  _287
REMARK  123  A    between atoms: _287  and  _288
REMARK  124  A    between atoms: _291  and  _293
REMARK  125  A    between atoms: _293  and  _294
REMARK  126  A    between atoms: _293  and  _296
REMARK  127  A    between atoms: _296  and  _297
REMARK  128  A    between atoms: _300  and  _302
REMARK  129  A    between atoms: _302  and  _303
REMARK  130  A    between atoms: _302  and  _305
REMARK  131  A    between atoms: _308  and  _310
REMARK  132  A    between atoms: _310  and  _311
REMARK  133  A    between atoms: _310  and  _313
REMARK  134  A    between atoms: _313  and  _314
REMARK  135  A    between atoms: _317  and  _319
REMARK  136  A    between atoms: _319  and  _320
REMARK  137  A    between atoms: _319  and  _322
REMARK  138  A    between atoms: _322  and  _323
REMARK  139  A    between atoms: _323  and  _324
REMARK  140  A    between atoms: _327  and  _329
REMARK  141  A    between atoms: _329  and  _330
REMARK  142  A    between atoms: _329  and  _332
REMARK  143  A    between atoms: _332  and  _333
REMARK  144  A    between atoms: _338  and  _339
REMARK  145  A    between atoms: _341  and  _343
REMARK  146  A    between atoms: _343  and  _344
REMARK  147  A    between atoms: _343  and  _346
REMARK  148  A    between atoms: _346  and  _347
REMARK  149  A    between atoms: _347  and  _348
REMARK  150  A    between atoms: _350  and  _352
REMARK  151  A    between atoms: _352  and  _353
REMARK  152  A    between atoms: _352  and  _355
REMARK  153  A    between atoms: _355  and  _356
REMARK  154  A    between atoms: _356  and  _357
REMARK  155  A    between atoms: _360  and  _362
REMARK  156  A    between atoms: _362  and  _363
REMARK  157  A    between atoms: _362  and  _365
REMARK  158  A    between atoms: _365  and  _366
REMARK  159  A    between atoms: _371  and  _373
REMARK  160  A    between atoms: _373  and  _374
REMARK  161  A    between atoms: _376  and  _378
REMARK  162  A    between atoms: _378  and  _379
REMARK  163  A    between atoms: _378  and  _381
REMARK  164  A    between atoms: _381  and  _382
REMARK  165  A    between atoms: _384  and  _386
REMARK  166  A    between atoms: _386  and  _387
REMARK  167  A    between atoms: _386  and  _389
REMARK  168  A    between atoms: _389  and  _390
REMARK  169  A    between atoms: _392  and  _394
REMARK  170  A    between atoms: _394  and  _395
REMARK  171  A    between atoms: _397  and  _399
REMARK  172  A    between atoms: _399  and  _400
REMARK  173  A    between atoms: _399  and  _402
REMARK  174  A    between atoms: _402  and  _403
REMARK  175  A    between atoms: _403  and  _404
REMARK  176  A    between atoms: _406  and  _408
REMARK  177  A    between atoms: _408  and  _409
REMARK  178  A    between atoms: _408  and  _411
REMARK  179  A    between atoms: _411  and  _412
REMARK  180  A    between atoms: _417  and  _418
REMARK  181  A    between atoms: _420  and  _422
REMARK  182  A    between atoms: _422  and  _423
REMARK  183  A    between atoms: _422  and  _425
REMARK  184  A    between atoms: _425  and  _426
REMARK  185  A    between atoms: _429  and  _431
REMARK  186  A    between atoms: _431  and  _432
REMARK  187  A    between atoms: _431  and  _434
REMARK  188  A    between atoms: _434  and  _435
REMARK  189  A    between atoms: _440  and  _441
REMARK  190  A    between atoms: _443  and  _445
REMARK  191  A    between atoms: _445  and  _446
REMARK  192  A    between atoms: _445  and  _448
REMARK  193  A    between atoms: _451  and  _453
REMARK  194  A    between atoms: _453  and  _454
REMARK  195  A    between atoms: _453  and  _456
REMARK  196  A    between atoms: _456  and  _457
REMARK  197  A    between atoms: _462  and  _464
REMARK  198  A    between atoms: _464  and  _465
REMARK  199  A    between atoms: _464  and  _467
REMARK  200  A    between atoms: _467  and  _468
REMARK  201  A    between atoms: _468  and  _469
REMARK  202  A    between atoms: _469  and  _470
REMARK  203  A    between atoms: _479  and  _481
REMARK  204  A    between atoms: _481  and  _482
REMARK  205  A    between atoms: _481  and  _484
REMARK  206  A    between atoms: _484  and  _485
REMARK  207  A    between atoms: _488  and  _490
REMARK  208  A    between atoms: _490  and  _491
REMARK  209  A    between atoms: _490  and  _493
REMARK  210  A    between atoms: _493  and  _494
REMARK  211  A    between atoms: _494  and  _495
REMARK  212  A    between atoms: _495  and  _496
REMARK  213  A    between atoms: _505  and  _507
REMARK  214  A    between atoms: _507  and  _508
REMARK  215  A    between atoms: _507  and  _510
REMARK  216  A    between atoms: _510  and  _511
REMARK  217  A    between atoms: _516  and  _518
REMARK  218  A    between atoms: _518  and  _519
REMARK  219  A    between atoms: _518  and  _521
REMARK  220  A    between atoms: _521  and  _522
REMARK  221  A    between atoms: _525  and  _527
REMARK  222  A    between atoms: _527  and  _528
REMARK  223  A    between atoms: _527  and  _530
REMARK  224  A    between atoms: _530  and  _531
REMARK  225  A    between atoms: _534  and  _536
REMARK  226  A    between atoms: _536  and  _537
REMARK  227  A    between atoms: _536  and  _539
REMARK  228  A    between atoms: _539  and  _540
REMARK  229  A    between atoms: _543  and  _545
REMARK  230  A    between atoms: _545  and  _546
REMARK  231  A    between atoms: _545  and  _548
REMARK  232  A    between atoms: _548  and  _549
REMARK  233  A    between atoms: _554  and  _556
REMARK  234  A    between atoms: _556  and  _557
REMARK  235  A    between atoms: _556  and  _559
REMARK  236  A    between atoms: _559  and  _560
REMARK  237  A    between atoms: _560  and  _561
REMARK  238  A    between atoms: _561  and  _562
REMARK  239  A    between atoms: _562  and  _563
REMARK  240  A    between atoms: _567  and  _569
REMARK  241  A    between atoms: _569  and  _570
REMARK  242  A    between atoms: _569  and  _572
REMARK  243  A    between atoms: _575  and  _577
REMARK  244  A    between atoms: _577  and  _578
REMARK  245  A    between atoms: _577  and  _580
REMARK  246  A    between atoms: _580  and  _581
REMARK  247  A    between atoms: _583  and  _585
REMARK  248  A    between atoms: _585  and  _586
REMARK  249  A    between atoms: _585  and  _588
REMARK  250  A    between atoms: _588  and  _589
REMARK  251  A    between atoms: _592  and  _594
REMARK  252  A    between atoms: _594  and  _595
REMARK  253  A    between atoms: _594  and  _597
REMARK  254  A    between atoms: _597  and  _598
REMARK                            x       y       z     vdW  Elec       q    Type
REMARK                         _______ _______ _______ _____ _____    ______ ____
ROOT
ATOM      1  C   ILE A   3      -1.893  -3.783  -8.952  0.00  0.00    +0.241 C 
ATOM      2  N   ARG A   4      -1.365  -4.205  -7.809  0.00  0.00    -0.297 N 
ATOM      3  H   ARG A   4      -1.565  -5.174  -7.488  0.00  0.00    +0.150 HD
ATOM      4  O   ILE A   3      -1.734  -2.640  -9.400  0.00  0.00    -0.273 OA
ENDROOT
BRANCH   2   5
ATOM      5  CA  ARG A   4      -0.507  -3.344  -6.984  0.00  0.00    +0.149 C 
BRANCH   5   6
ATOM      6  C   ARG A   4       0.947  -3.366  -7.480  0.00  0.00    +0.241 C 
ATOM      7  O   ARG A   4       1.529  -4.430  -7.636  0.00  0.00    -0.273 OA
ATOM      8  N   LEU A   5       1.525  -2.206  -7.761  0.00  0.00    -0.298 N 
ATOM      9  H   LEU A   5       0.934  -1.351  -7.799  0.00  0.00    +0.150 HD
BRANCH   8  10
ATOM     10  CA  LEU A   5       2.962  -2.078  -8.020  0.00  0.00    +0.137 C 
BRANCH  10  11
ATOM     11  C   LEU A   5       3.773  -2.069  -6.722  0.00  0.00    +0.227 C 
ATOM     12  O   LEU A   5       3.576  -1.194  -5.879  0.00  0.00    -0.286 OA
ENDBRANCH  10  11
BRANCH  10  13
ATOM     13  CB  LEU A   5       3.272  -0.789  -8.786  0.00  0.00    +0.028 C 
BRANCH  13  14
ATOM     14  CG  LEU A   5       4.745  -0.421  -9.014  0.00  0.00    +0.002 C 
ATOM     15  CD2 LEU A   5       4.844   1.032  -9.465  0.00  0.00    +0.000 C 
ATOM     16  CD1 LEU A   5       5.398  -1.380 -10.023  0.00  0.00    +0.000 C 
ENDBRANCH  13  14
ENDBRANCH  10  13
ENDBRANCH   8  10
ENDBRANCH   5   6
BRANCH   5  17
ATOM     17  CB  ARG A   4      -0.600  -3.795  -5.528  0.00  0.00    +0.033 C 
BRANCH  17  18
ATOM     18  CG  ARG A   4       0.378  -3.094  -4.607  0.00  0.00    +0.045 C 
BRANCH  18  19
ATOM     19  CD  ARG A   4       0.172  -3.493  -3.137  0.00  0.00    +0.174 C 
BRANCH  19  20
ATOM     20  NE  ARG A   4       1.077  -2.731  -2.302  0.00  0.00    -0.265 N 
ATOM     21  HE  ARG A   4       1.913  -3.214  -1.916  0.00  0.00    +0.259 HD
ATOM     22  CZ  ARG A   4       0.898  -1.443  -2.000  0.00  0.00    +0.342 C 
ATOM     23  NH2 ARG A   4       1.788  -0.792  -1.245  0.00  0.00    -0.292 N 
ATOM     24 HH21 ARG A   4       2.629  -1.289  -0.887  0.00  0.00    +0.255 HD
ATOM     25 HH22 ARG A   4       1.640   0.211  -1.015  0.00  0.00    +0.255 HD
ATOM     26  NH1 ARG A   4      -0.177  -0.807  -2.442  0.00  0.00    -0.292 N 
ATOM     27 HH11 ARG A   4      -0.320   0.196  -2.209  0.00  0.00    +0.255 HD
ATOM     28 HH12 ARG A   4      -0.878  -1.311  -3.022  0.00  0.00    +0.255 HD
ENDBRANCH  19  20
ENDBRANCH  18  19
ENDBRANCH  17  18
ENDBRANCH   5  17
ENDBRANCH   2   5
BRANCH   1  29
ATOM     29  CA  ILE A   3      -2.786  -4.777  -9.702  0.00  0.00    +0.149 C 
BRANCH  29  32
ATOM     30  C   ILE A   2      -4.758  -3.448  -9.034  0.00  0.00    +0.241 C 
ATOM     31  O   ILE A   2      -4.389  -3.363  -7.851  0.00  0.00    -0.273 OA
ATOM     32  N   ILE A   3      -4.050  -4.056  -9.993  0.00  0.00    -0.297 N 
ATOM     33  H   ILE A   3      -4.396  -4.022 -10.973  0.00  0.00    +0.150 HD
BRANCH  30  34
ATOM     34  CA  ILE A   2      -6.090  -2.850  -9.449  0.00  0.00    +0.148 C 
BRANCH  34  36
ATOM     35  C   ASN A   1      -8.212  -3.850  -8.756  0.00  0.00    +0.239 C 
ATOM     36  N   ILE A   2      -7.117  -3.186  -8.461  0.00  0.00    -0.297 N 
ATOM     37  H   ILE A   2      -6.973  -2.884  -7.476  0.00  0.00    +0.150 HD
ATOM     38  O   ASN A   1      -8.621  -4.004  -9.920  0.00  0.00    -0.274 OA
BRANCH  35  39
ATOM     39  CA  ASN A   1      -9.000  -4.373  -7.573  0.00  0.00    +0.154 C 
BRANCH  39  40
ATOM     40  N   ASN A   1      -8.672  -3.641  -6.374  0.00  0.00    -0.238 NA
ATOM     41  H   ASN A   1      -8.874  -2.622  -6.317  0.00  0.00    +0.142 HD
ENDBRANCH  39  40
BRANCH  39  42
ATOM     42  CB  ASN A   1     -10.489  -4.303  -7.854  0.00  0.00    +0.111 C 
BRANCH  42  43
ATOM     43  CG  ASN A   1     -11.338  -4.937  -6.780  0.00  0.00    +0.221 C 
ATOM     44  OD1 ASN A   1     -12.030  -4.248  -6.047  0.00  0.00    -0.275 OA
ATOM     45  ND2 ASN A   1     -11.353  -6.249  -6.716  0.00  0.00    -0.329 N 
ATOM     46 HD21 ASN A   1     -11.966  -6.729  -6.027  0.00  0.00    +0.145 HD
ATOM     47 HD22 ASN A   1     -10.752  -6.808  -7.355  0.00  0.00    +0.145 HD
ENDBRANCH  42  43
ENDBRANCH  39  42
ENDBRANCH  35  39
ENDBRANCH  34  36
BRANCH  34  48
ATOM     48  CB  ILE A   2      -5.930  -1.344  -9.610  0.00  0.00    +0.027 C 
ATOM     49  CG2 ILE A   2      -4.763  -1.032 -10.567  0.00  0.00    +0.002 C 
BRANCH  48  50
ATOM     50  CG1 ILE A   2      -7.221  -0.754 -10.165  0.00  0.00    +0.002 C 
ATOM     51  CD1 ILE A   2      -7.303   0.759 -10.082  0.00  0.00    +0.000 C 
ENDBRANCH  48  50
ENDBRANCH  34  48
ENDBRANCH  30  34
ENDBRANCH  29  32
BRANCH  29  52
ATOM     52  CB  ILE A   3      -2.131  -5.265 -11.021  0.00  0.00    +0.027 C 
ATOM     53  CG2 ILE A   3      -2.045  -4.112 -12.013  0.00  0.00    +0.002 C 
BRANCH  52  54
ATOM     54  CG1 ILE A   3      -0.738  -5.815 -10.874  0.00  0.00    +0.002 C 
ATOM     55  CD1 ILE A   3      -0.700  -7.134 -10.175  0.00  0.00    +0.000 C 
ENDBRANCH  52  54
ENDBRANCH  29  52
ENDBRANCH   1  29
TORSDOF 22
REMARK  Name = ../refined-set-2016/4p5z/4p5z_pocket.pdb
REMARK  254 active torsions:
REMARK  status: ('A' for Active; 'I' for Inactive)
REMARK    1  A    between atoms: _1  and  _3
REMARK    2  A    between atoms: _3  and  _4
REMARK    3  A    between atoms: _3  and  _6
REMARK    4  A    between atoms: _9  and  _11
REMARK    5  A    between atoms: _11  and  _12
REMARK    6  A    between atoms: _11  and  _14
REMARK    7  A    between atoms: _17  and  _19
REMARK    8  A    between atoms: _19  and  _20
REMARK    9  A    between atoms: _22  and  _24
REMARK   10  A    between atoms: _24  and  _25
REMARK   11  A    between atoms: _28  and  _30
REMARK   12  A    between atoms: _30  and  _31
REMARK   13  A    between atoms: _33  and  _35
REMARK   14  A    between atoms: _35  and  _36
REMARK   15  A    between atoms: _35  and  _38
REMARK   16  A    between atoms: _38  and  _39
REMARK   17  A    between atoms: _39  and  _40
REMARK   18  A    between atoms: _43  and  _45
REMARK   19  A    between atoms: _45  and  _46
REMARK   20  A    between atoms: _48  and  _50
REMARK   21  A    between atoms: _50  and  _51
REMARK   22  A    between atoms: _50  and  _53
REMARK   23  A    between atoms: _53  and  _54
REMARK   24  A    between atoms: _54  and  _55
REMARK   25  A    between atoms: _58  and  _60
REMARK   26  A    between atoms: _60  and  _61
REMARK   27  A    between atoms: _60  and  _63
REMARK   28  A    between atoms: _66  and  _68
REMARK   29  A    between atoms: _68  and  _69
REMARK   30  A    between atoms: _68  and  _71
REMARK   31  A    between atoms: _73  and  _75
REMARK   32  A    between atoms: _75  and  _76
REMARK   33  A    between atoms: _75  and  _78
REMARK   34  A    between atoms: _78  and  _79
REMARK   35  A    between atoms: _81  and  _83
REMARK   36  A    between atoms: _83  and  _84
REMARK   37  A    between atoms: _86  and  _88
REMARK   38  A    between atoms: _88  and  _89
REMARK   39  A    between atoms: _88  and  _91
REMARK   40  A    between atoms: _91  and  _92
REMARK   41  A    between atoms: _94  and  _96
REMARK   42  A    between atoms: _96  and  _97
REMARK   43  A    between atoms: _96  and  _99
REMARK   44  A    between atoms: _102  and  _104
REMARK   45  A    between atoms: _104  and  _105
REMARK   46  A    between atoms: _108  and  _110
REMARK   47  A    between atoms: _110  and  _111
REMARK   48  A    between atoms: _110  and  _113
REMARK   49  A    between atoms: _113  and  _114
REMARK   50  A    between atoms: _117  and  _119
REMARK   51  A    between atoms: _119  and  _120
REMARK   52  A    between atoms: _119  and  _122
REMARK   53  A    between atoms: _122  and  _123
REMARK   54  A    between atoms: _123  and  _124
REMARK   55  A    between atoms: _124  and  _125
REMARK   56  A    between atoms: _125  and  _126
REMARK   57  A    between atoms: _130  and  _132
REMARK   58  A    between atoms: _132  and  _133
REMARK   59  A    between atoms: _132  and  _135
REMARK   60  A    between atoms: _135  and  _136
REMARK   61  A    between atoms: _139  and  _141
REMARK   62  A    between atoms: _141  and  _142
REMARK   63  A    between atoms: _141  and  _144
REMARK   64  A    between atoms: _144  and  _145
REMARK   65  A    between atoms: _148  and  _150
REMARK   66  A    between atoms: _150  and  _151
REMARK   67  A    between atoms: _150  and  _153
REMARK   68  A    between atoms: _153  and  _154
REMARK   69  A    between atoms: _160  and  _162
REMARK   70  A    between atoms: _162  and  _163
REMARK   71  A    between atoms: _165  and  _167
REMARK   72  A    between atoms: _167  and  _168
REMARK   73  A    between atoms: _167  and  _170
REMARK   74  A    between atoms: _170  and  _171
REMARK   75  A    between atoms: _171  and  _172
REMARK   76  A    between atoms: _175  and  _177
REMARK   77  A    between atoms: _177  and  _178
REMARK   78  A    between atoms: _181  and  _183
REMARK   79  A    between atoms: _183  and  _184
REMARK   80  A    between atoms: _183  and  _186
REMARK   81  A    between atoms: _186  and  _187
REMARK   82  A    between atoms: _189  and  _191
REMARK   83  A    between atoms: _191  and  _192
REMARK   84  A    between atoms: _191  and  _194
REMARK   85  A    between atoms: _194  and  _195
REMARK   86  A    between atoms: _198  and  _200
REMARK   87  A    between atoms: _200  and  _201
REMARK   88  A    between atoms: _200  and  _203
REMARK   89  A    between atoms: _203  and  _204
REMARK   90  A    between atoms: _204  and  _205
REMARK   91  A    between atoms: _207  and  _209
REMARK   92  A    between atoms: _209  and  _210
REMARK   93  A    between atoms: _212  and  _214
REMARK   94  A    between atoms: _214  and  _215
REMARK   95  A    between atoms: _214  and  _217
REMARK   96  A    between atoms: _217  and  _218
REMARK   97  A    between atoms: _218  and  _219
REMARK   98  A    between atoms: _224  and  _226
REMARK   99  A    between atoms: _226  and  _227
REMARK  100  A    between atoms: _226  and  _229
REMARK  101  A    between atoms: _229  and  _230
REMARK  102  A    between atoms: _236  and  _238
REMARK  103  A    between atoms: _238  and  _239
REMARK  104  A    between atoms: _238  and  _241
REMARK  105  A    between atoms: _241  and  _242
REMARK  106  A    between atoms: _247  and  _249
REMARK  107  A    between atoms: _249  and  _250
REMARK  108  A    between atoms: _249  and  _252
REMARK  109  A    between atoms: _252  and  _253
REMARK  110  A    between atoms: _256  and  _258
REMARK  111  A    between atoms: _258  and  _259
REMARK  112  A    between atoms: _258  and  _261
REMARK  113  A    between atoms: _261  and  _262
REMARK  114  A    between atoms: _265  and  _267
REMARK  115  A    between atoms: _267  and  _268
REMARK  116  A    between atoms: _267  and  _270
REMARK  117  A    between atoms: _270  and  _271
REMARK  118  A    between atoms: _271  and  _272
REMARK  119  A    between atoms: _272  and  _273
REMARK  120  A    between atoms: _282  and  _284
REMARK  121  A    between atoms: _284  and  _285
REMARK  122  A    between atoms: _284  and  _287
REMARK  123  A    between atoms: _287  and  _288
REMARK  124  A    between atoms: _291  and  _293
REMARK  125  A    between atoms: _293  and  _294
REMARK  126  A    between atoms: _293  and  _296
REMARK  127  A    between atoms: _296  and  _297
REMARK  128  A    between atoms: _300  and  _302
REMARK  129  A    between atoms: _302  and  _303
REMARK  130  A    between atoms: _302  and  _305
REMARK  131  A    between atoms: _308  and  _310
REMARK  132  A    between atoms: _310  and  _311
REMARK  133  A    between atoms: _310  and  _313
REMARK  134  A    between atoms: _313  and  _314
REMARK  135  A    between atoms: _317  and  _319
REMARK  136  A    between atoms: _319  and  _320
REMARK  137  A    between atoms: _319  and  _322
REMARK  138  A    between atoms: _322  and  _323
REMARK  139  A    between atoms: _323  and  _324
REMARK  140  A    between atoms: _327  and  _329
REMARK  141  A    between atoms: _329  and  _330
REMARK  142  A    between atoms: _329  and  _332
REMARK  143  A    between atoms: _332  and  _333
REMARK  144  A    between atoms: _338  and  _339
REMARK  145  A    between atoms: _341  and  _343
REMARK  146  A    between atoms: _343  and  _344
REMARK  147  A    between atoms: _343  and  _346
REMARK  148  A    between atoms: _346  and  _347
REMARK  149  A    between atoms: _347  and  _348
REMARK  150  A    between atoms: _350  and  _352
REMARK  151  A    between atoms: _352  and  _353
REMARK  152  A    between atoms: _352  and  _355
REMARK  153  A    between atoms: _355  and  _356
REMARK  154  A    between atoms: _356  and  _357
REMARK  155  A    between atoms: _360  and  _362
REMARK  156  A    between atoms: _362  and  _363
REMARK  157  A    between atoms: _362  and  _365
REMARK  158  A    between atoms: _365  and  _366
REMARK  159  A    between atoms: _371  and  _373
REMARK  160  A    between atoms: _373  and  _374
REMARK  161  A    between atoms: _376  and  _378
REMARK  162  A    between atoms: _378  and  _379
REMARK  163  A    between atoms: _378  and  _381
REMARK  164  A    between atoms: _381  and  _382
REMARK  165  A    between atoms: _384  and  _386
REMARK  166  A    between atoms: _386  and  _387
REMARK  167  A    between atoms: _386  and  _389
REMARK  168  A    between atoms: _389  and  _390
REMARK  169  A    between atoms: _392  and  _394
REMARK  170  A    between atoms: _394  and  _395
REMARK  171  A    between atoms: _397  and  _399
REMARK  172  A    between atoms: _399  and  _400
REMARK  173  A    between atoms: _399  and  _402
REMARK  174  A    between atoms: _402  and  _403
REMARK  175  A    between atoms: _403  and  _404
REMARK  176  A    between atoms: _406  and  _408
REMARK  177  A    between atoms: _408  and  _409
REMARK  178  A    between atoms: _408  and  _411
REMARK  179  A    between atoms: _411  and  _412
REMARK  180  A    between atoms: _417  and  _418
REMARK  181  A    between atoms: _420  and  _422
REMARK  182  A    between atoms: _422  and  _423
REMARK  183  A    between atoms: _422  and  _425
REMARK  184  A    between atoms: _425  and  _426
REMARK  185  A    between atoms: _429  and  _431
REMARK  186  A    between atoms: _431  and  _432
REMARK  187  A    between atoms: _431  and  _434
REMARK  188  A    between atoms: _434  and  _435
REMARK  189  A    between atoms: _440  and  _441
REMARK  190  A    between atoms: _443  and  _445
REMARK  191  A    between atoms: _445  and  _446
REMARK  192  A    between atoms: _445  and  _448
REMARK  193  A    between atoms: _451  and  _453
REMARK  194  A    between atoms: _453  and  _454
REMARK  195  A    between atoms: _453  and  _456
REMARK  196  A    between atoms: _456  and  _457
REMARK  197  A    between atoms: _462  and  _464
REMARK  198  A    between atoms: _464  and  _465
REMARK  199  A    between atoms: _464  and  _467
REMARK  200  A    between atoms: _467  and  _468
REMARK  201  A    between atoms: _468  and  _469
REMARK  202  A    between atoms: _469  and  _470
REMARK  203  A    between atoms: _479  and  _481
REMARK  204  A    between atoms: _481  and  _482
REMARK  205  A    between atoms: _481  and  _484
REMARK  206  A    between atoms: _484  and  _485
REMARK  207  A    between atoms: _488  and  _490
REMARK  208  A    between atoms: _490  and  _491
REMARK  209  A    between atoms: _490  and  _493
REMARK  210  A    between atoms: _493  and  _494
REMARK  211  A    between atoms: _494  and  _495
REMARK  212  A    between atoms: _495  and  _496
REMARK  213  A    between atoms: _505  and  _507
REMARK  214  A    between atoms: _507  and  _508
REMARK  215  A    between atoms: _507  and  _510
REMARK  216  A    between atoms: _510  and  _511
REMARK  217  A    between atoms: _516  and  _518
REMARK  218  A    between atoms: _518  and  _519
REMARK  219  A    between atoms: _518  and  _521
REMARK  220  A    between atoms: _521  and  _522
REMARK  221  A    between atoms: _525  and  _527
REMARK  222  A    between atoms: _527  and  _528
REMARK  223  A    between atoms: _527  and  _530
REMARK  224  A    between atoms: _530  and  _531
REMARK  225  A    between atoms: _534  and  _536
REMARK  226  A    between atoms: _536  and  _537
REMARK  227  A    between atoms: _536  and  _539
REMARK  228  A    between atoms: _539  and  _540
REMARK  229  A    between atoms: _543  and  _545
REMARK  230  A    between atoms: _545  and  _546
REMARK  231  A    between atoms: _545  and  _548
REMARK  232  A    between atoms: _548  and  _549
REMARK  233  A    between atoms: _554  and  _556
REMARK  234  A    between atoms: _556  and  _557
REMARK  235  A    between atoms: _556  and  _559
REMARK  236  A    between atoms: _559  and  _560
REMARK  237  A    between atoms: _560  and  _561
REMARK  238  A    between atoms: _561  and  _562
REMARK  239  A    between atoms: _562  and  _563
REMARK  240  A    between atoms: _567  and  _569
REMARK  241  A    between atoms: _569  and  _570
REMARK  242  A    between atoms: _569  and  _572
REMARK  243  A    between atoms: _575  and  _577
REMARK  244  A    between atoms: _577  and  _578
REMARK  245  A    between atoms: _577  and  _580
REMARK  246  A    between atoms: _580  and  _581
REMARK  247  A    between atoms: _583  and  _585
REMARK  248  A    between atoms: _585  and  _586
REMARK  249  A    between atoms: _585  and  _588
REMARK  250  A    between atoms: _588  and  _589
REMARK  251  A    between atoms: _592  and  _594
REMARK  252  A    between atoms: _594  and  _595
REMARK  253  A    between atoms: _594  and  _597
REMARK  254  A    between atoms: _597  and  _598
REMARK                            x       y       z     vdW  Elec       q    Type
REMARK                         _______ _______ _______ _____ _____    ______ ____
ROOT
ATOM      1  CA  TYR A   5       1.276 -11.983  -7.034  0.00  0.00    +0.153 C 
ENDROOT
BRANCH   1   2
ATOM      2  C   TYR A   5      -0.177 -12.428  -7.061  0.00  0.00    +0.241 C 
ATOM      3  O   TYR A   5      -0.905 -12.312  -6.083  0.00  0.00    -0.273 OA
ATOM      4  N   MET A   6      -0.586 -12.994  -8.186  0.00  0.00    -0.297 N 
ATOM      5  H   MET A   6       0.099 -13.145  -8.954  0.00  0.00    +0.150 HD
BRANCH   4   6
ATOM      6  CA  MET A   6      -1.957 -13.408  -8.377  0.00  0.00    +0.149 C 
BRANCH   6   7
ATOM      7  C   MET A   6      -1.949 -14.928  -8.746  0.00  0.00    +0.241 C 
ATOM      8  N   GLU A   7      -2.337 -15.754  -7.820  0.00  0.00    -0.297 N 
ATOM      9  H   GLU A   7      -2.859 -15.395  -6.995  0.00  0.00    +0.150 HD
ATOM     10  O   MET A   6      -1.564 -15.315  -9.857  0.00  0.00    -0.273 OA
BRANCH   8  11
ATOM     11  CA  GLU A   7      -2.052 -17.155  -7.926  0.00  0.00    +0.149 C 
BRANCH  11  12
ATOM     12  C   GLU A   7      -2.745 -17.850  -9.097  0.00  0.00    +0.241 C 
ATOM     13  N   ASN A   8      -3.925 -17.406  -9.467  0.00  0.00    -0.297 N 
ATOM     14  H   ASN A   8      -4.306 -16.537  -9.041  0.00  0.00    +0.150 HD
ATOM     15  O   GLU A   7      -2.193 -18.735  -9.667  0.00  0.00    -0.273 OA
BRANCH  13  16
ATOM     16  CA  ASN A   8      -4.701 -18.116 -10.464  0.00  0.00    +0.158 C 
BRANCH  16  17
ATOM     17  C   ASN A   8      -4.632 -17.507 -11.849  0.00  0.00    +0.241 C 
ATOM     18  N   GLY A   9      -3.706 -16.582 -12.065  0.00  0.00    -0.295 N 
ATOM     19  H   GLY A   9      -3.237 -16.133 -11.252  0.00  0.00    +0.150 HD
ATOM     20  O   ASN A   8      -5.393 -17.887 -12.722  0.00  0.00    -0.273 OA
BRANCH  18  21
ATOM     21  CA  GLY A   9      -3.331 -16.181 -13.411  0.00  0.00    +0.176 C 
BRANCH  21  22
ATOM     22  C   GLY A   9      -4.350 -15.272 -14.107  0.00  0.00    +0.243 C 
ATOM     23  O   GLY A   9      -5.174 -14.673 -13.446  0.00  0.00    -0.273 OA
ATOM     24  N   SER A  10      -4.334 -15.233 -15.440  0.00  0.00    -0.296 N 
ATOM     25  H   SER A  10      -3.567 -15.721 -15.946  0.00  0.00    +0.150 HD
BRANCH  24  26
ATOM     26  CA  SER A  10      -5.359 -14.527 -16.219  0.00  0.00    +0.166 C 
BRANCH  26  27
ATOM     27  CB  SER A  10      -6.739 -15.122 -16.004  0.00  0.00    +0.229 C 
ATOM     28  OG  SER A  10      -6.909 -16.360 -15.991  0.00  0.00    -0.286 OA
ENDBRANCH  26  27
BRANCH  26  29
ATOM     29  C   SER A  10      -5.013 -14.605 -17.716  0.00  0.00    +0.165 C 
BRANCH  29  30
ATOM     30  O   SER A  10      -3.690 -14.119 -17.885  0.00  0.00    -0.380 OA
ATOM     31  H   SER A  10      -3.445 -14.160 -18.843  0.00  0.00    +0.211 HD
ENDBRANCH  29  30
ENDBRANCH  26  29
ENDBRANCH  24  26
ENDBRANCH  21  22
ENDBRANCH  18  21
ENDBRANCH  16  17
BRANCH  16  32
ATOM     32  CB  ASN A   8      -6.144 -18.254  -9.962  0.00  0.00    +0.114 C 
BRANCH  32  33
ATOM     33  CG  ASN A   8      -6.265 -19.330  -8.894  0.00  0.00    +0.222 C 
ATOM     34  ND2 ASN A   8      -6.960 -19.041  -7.798  0.00  0.00    -0.329 N 
ATOM     35 HD21 ASN A   8      -7.086 -19.760  -7.058  0.00  0.00    +0.145 HD
ATOM     36 HD22 ASN A   8      -7.377 -18.096  -7.681  0.00  0.00    +0.145 HD
ATOM     37  OD1 ASN A   8      -5.755 -20.419  -9.083  0.00  0.00    -0.275 OA
ENDBRANCH  32  33
ENDBRANCH  16  32
ENDBRANCH  13  16
ENDBRANCH  11  12
BRANCH  11  38
ATOM     38  CB  GLU A   7      -2.320 -17.841  -6.595  0.00  0.00    +0.041 C 
BRANCH  38  39
ATOM     39  CG  GLU A   7      -2.225 -19.339  -6.565  0.00  0.00    +0.116 C 
BRANCH  39  40
ATOM     40  CD  GLU A   7      -2.324 -19.874  -5.167  0.00  0.00    +0.365 C 
ATOM     41  OE2 GLU A   7      -1.708 -19.291  -4.279  0.00  0.00    -0.246 OA
ATOM     42  OE1 GLU A   7      -3.026 -20.868  -4.955  0.00  0.00    -0.246 OA
ENDBRANCH  39  40
ENDBRANCH  38  39
ENDBRANCH  11  38
ENDBRANCH   8  11
ENDBRANCH   6   7
BRANCH   6  43
ATOM     43  CB  MET A   6      -2.575 -12.529  -9.456  0.00  0.00    +0.041 C 
BRANCH  43  44
ATOM     44  CG  MET A   6      -2.479 -10.946  -9.089  0.00  0.00    +0.060 C 
BRANCH  44  45
ATOM     45  SD  MET A   6      -3.682 -10.768  -7.782  0.00  0.00    -0.139 S 
ATOM     46  CE  MET A   6      -5.208 -10.810  -8.728  0.00  0.00    +0.069 C 
ENDBRANCH  44  45
ENDBRANCH  43  44
ENDBRANCH   6  43
ENDBRANCH   4   6
ENDBRANCH   1   2
BRANCH   1  48
ATOM     47  C   GLU A   4       1.441  -9.558  -7.119  0.00  0.00    +0.241 C 
ATOM     48  N   TYR A   5       1.412 -10.676  -6.413  0.00  0.00    -0.297 N 
ATOM     49  H   TYR A   5       1.489 -10.618  -5.377  0.00  0.00    +0.150 HD
ATOM     50  O   GLU A   4       1.345  -9.512  -8.338  0.00  0.00    -0.273 OA
BRANCH  47  51
ATOM     51  CA  GLU A   4       1.656  -8.294  -6.307  0.00  0.00    +0.149 C 
BRANCH  51  53
ATOM     52  C   THR A   3       3.420  -7.476  -7.734  0.00  0.00    +0.243 C 
ATOM     53  N   GLU A   4       2.222  -7.291  -7.201  0.00  0.00    -0.297 N 
ATOM     54  H   GLU A   4       1.684  -6.429  -7.421  0.00  0.00    +0.150 HD
ATOM     55  O   THR A   3       4.103  -8.460  -7.478  0.00  0.00    -0.273 OA
BRANCH  52  56
ATOM     56  CA  THR A   3       3.911  -6.429  -8.686  0.00  0.00    +0.176 C 
BRANCH  56  59
ATOM     57  C   VAL A   2       6.214  -5.665  -8.928  0.00  0.00    +0.241 C 
ATOM     58  O   VAL A   2       5.938  -4.505  -8.536  0.00  0.00    -0.273 OA
ATOM     59  N   THR A   3       5.327  -6.660  -8.982  0.00  0.00    -0.295 N 
ATOM     60  H   THR A   3       5.646  -7.616  -9.239  0.00  0.00    +0.150 HD
BRANCH  57  61
ATOM     61  CA  VAL A   2       7.648  -6.015  -9.333  0.00  0.00    +0.148 C 
BRANCH  61  63
ATOM     62  C   ILE A   1       8.338  -5.389 -11.571  0.00  0.00    +0.238 C 
ATOM     63  N   VAL A   2       8.076  -5.045 -10.327  0.00  0.00    -0.297 N 
ATOM     64  H   VAL A   2       8.179  -4.049 -10.047  0.00  0.00    +0.150 HD
ATOM     65  O   ILE A   1       8.168  -6.546 -12.005  0.00  0.00    -0.274 OA
BRANCH  62  66
ATOM     66  CA  ILE A   1       8.876  -4.256 -12.456  0.00  0.00    +0.145 C 
BRANCH  66  67
ATOM     67  N   ILE A   1      10.083  -4.726 -13.091  0.00  0.00    -0.238 NA
ATOM     68  H   ILE A   1      10.004  -5.511 -13.768  0.00  0.00    +0.142 HD
ENDBRANCH  66  67
BRANCH  66  69
ATOM     69  CB  ILE A   1       7.791  -3.845 -13.487  0.00  0.00    +0.025 C 
ATOM     70  CG2 ILE A   1       6.457  -3.521 -12.769  0.00  0.00    +0.002 C 
BRANCH  69  71
ATOM     71  CG1 ILE A   1       8.249  -2.660 -14.327  0.00  0.00    +0.002 C 
ATOM     72  CD1 ILE A   1       7.266  -2.318 -15.475  0.00  0.00    +0.000 C 
ENDBRANCH  69  71
ENDBRANCH  66  69
ENDBRANCH  62  66
ENDBRANCH  61  63
BRANCH  61  73
ATOM     73  CB  VAL A   2       8.599  -5.995  -8.101  0.00  0.00    +0.027 C 
ATOM     74  CG2 VAL A   2       8.225  -7.025  -7.083  0.00  0.00    +0.002 C 
ATOM     75  CG1 VAL A   2      10.049  -6.208  -8.540  0.00  0.00    +0.002 C 
ENDBRANCH  61  73
ENDBRANCH  57  61
ENDBRANCH  56  59
BRANCH  56  76
ATOM     76  CB  THR A   3       3.000  -6.433  -9.978  0.00  0.00    +0.137 C 
ATOM     77  CG2 THR A   3       3.502  -5.449 -11.019  0.00  0.00    +0.034 C 
BRANCH  76  78
ATOM     78  OG1 THR A   3       2.970  -7.743 -10.566  0.00  0.00    -0.382 OA
ATOM     79  HG1 THR A   3       2.604  -8.389  -9.911  0.00  0.00    +0.210 HD
ENDBRANCH  76  78
ENDBRANCH  56  76
ENDBRANCH  52  56
ENDBRANCH  51  53
BRANCH  51  80
ATOM     80  CB  GLU A   4       0.330  -7.860  -5.678  0.00  0.00    +0.041 C 
BRANCH  80  81
ATOM     81  CG  GLU A   4      -0.828  -7.982  -6.560  0.00  0.00    +0.116 C 
BRANCH  81  82
ATOM     82  CD  GLU A   4      -2.116  -7.364  -6.024  0.00  0.00    +0.365 C 
ATOM     83  OE2 GLU A   4      -2.721  -7.942  -5.102  0.00  0.00    -0.246 OA
ATOM     84  OE1 GLU A   4      -2.570  -6.322  -6.572  0.00  0.00    -0.246 OA
ENDBRANCH  81  82
ENDBRANCH  80  81
ENDBRANCH  51  80
ENDBRANCH  47  51
ENDBRANCH   1  48
BRANCH   1  85
ATOM     85  CB  TYR A   5       2.140 -12.992  -6.280  0.00  0.00    +0.055 C 
BRANCH  85  86
ATOM     86  CG  TYR A   5       2.140 -14.369  -6.910  0.00  0.00    -0.020 A 
ATOM     87  CD2 TYR A   5       1.578 -15.469  -6.265  0.00  0.00    -0.001 A 
ATOM     88  CE2 TYR A   5       1.594 -16.754  -6.878  0.00  0.00    +0.036 A 
ATOM     89  CZ  TYR A   5       2.185 -16.901  -8.129  0.00  0.00    +0.134 A 
ATOM     90  CE1 TYR A   5       2.738 -15.817  -8.760  0.00  0.00    +0.036 A 
ATOM     91  CD1 TYR A   5       2.729 -14.565  -8.144  0.00  0.00    -0.001 A 
BRANCH  89  92
ATOM     92  OH  TYR A   5       2.219 -18.125  -8.810  0.00  0.00    -0.506 OA
ATOM     93  HH  TYR A   5       2.684 -18.007  -9.676  0.00  0.00    +0.292 HD
ENDBRANCH  89  92
ENDBRANCH  85  86
ENDBRANCH   1  85
TORSDOF 41
REMARK  Name = ../refined-set-2016/4p5z/4p5z_pocket.pdb
REMARK  254 active torsions:
REMARK  status: ('A' for Active; 'I' for Inactive)
REMARK    1  A    between atoms: _1  and  _3
REMARK    2  A    between atoms: _3  and  _4
REMARK    3  A    between atoms: _3  and  _6
REMARK    4  A    between atoms: _9  and  _11
REMARK    5  A    between atoms: _11  and  _12
REMARK    6  A    between atoms: _11  and  _14
REMARK    7  A    between atoms: _17  and  _19
REMARK    8  A    between atoms: _19  and  _20
REMARK    9  A    between atoms: _22  and  _24
REMARK   10  A    between atoms: _24  and  _25
REMARK   11  A    between atoms: _28  and  _30
REMARK   12  A    between atoms: _30  and  _31
REMARK   13  A    between atoms: _33  and  _35
REMARK   14  A    between atoms: _35  and  _36
REMARK   15  A    between atoms: _35  and  _38
REMARK   16  A    between atoms: _38  and  _39
REMARK   17  A    between atoms: _39  and  _40
REMARK   18  A    between atoms: _43  and  _45
REMARK   19  A    between atoms: _45  and  _46
REMARK   20  A    between atoms: _48  and  _50
REMARK   21  A    between atoms: _50  and  _51
REMARK   22  A    between atoms: _50  and  _53
REMARK   23  A    between atoms: _53  and  _54
REMARK   24  A    between atoms: _54  and  _55
REMARK   25  A    between atoms: _58  and  _60
REMARK   26  A    between atoms: _60  and  _61
REMARK   27  A    between atoms: _60  and  _63
REMARK   28  A    between atoms: _66  and  _68
REMARK   29  A    between atoms: _68  and  _69
REMARK   30  A    between atoms: _68  and  _71
REMARK   31  A    between atoms: _73  and  _75
REMARK   32  A    between atoms: _75  and  _76
REMARK   33  A    between atoms: _75  and  _78
REMARK   34  A    between atoms: _78  and  _79
REMARK   35  A    between atoms: _81  and  _83
REMARK   36  A    between atoms: _83  and  _84
REMARK   37  A    between atoms: _86  and  _88
REMARK   38  A    between atoms: _88  and  _89
REMARK   39  A    between atoms: _88  and  _91
REMARK   40  A    between atoms: _91  and  _92
REMARK   41  A    between atoms: _94  and  _96
REMARK   42  A    between atoms: _96  and  _97
REMARK   43  A    between atoms: _96  and  _99
REMARK   44  A    between atoms: _102  and  _104
REMARK   45  A    between atoms: _104  and  _105
REMARK   46  A    between atoms: _108  and  _110
REMARK   47  A    between atoms: _110  and  _111
REMARK   48  A    between atoms: _110  and  _113
REMARK   49  A    between atoms: _113  and  _114
REMARK   50  A    between atoms: _117  and  _119
REMARK   51  A    between atoms: _119  and  _120
REMARK   52  A    between atoms: _119  and  _122
REMARK   53  A    between atoms: _122  and  _123
REMARK   54  A    between atoms: _123  and  _124
REMARK   55  A    between atoms: _124  and  _125
REMARK   56  A    between atoms: _125  and  _126
REMARK   57  A    between atoms: _130  and  _132
REMARK   58  A    between atoms: _132  and  _133
REMARK   59  A    between atoms: _132  and  _135
REMARK   60  A    between atoms: _135  and  _136
REMARK   61  A    between atoms: _139  and  _141
REMARK   62  A    between atoms: _141  and  _142
REMARK   63  A    between atoms: _141  and  _144
REMARK   64  A    between atoms: _144  and  _145
REMARK   65  A    between atoms: _148  and  _150
REMARK   66  A    between atoms: _150  and  _151
REMARK   67  A    between atoms: _150  and  _153
REMARK   68  A    between atoms: _153  and  _154
REMARK   69  A    between atoms: _160  and  _162
REMARK   70  A    between atoms: _162  and  _163
REMARK   71  A    between atoms: _165  and  _167
REMARK   72  A    between atoms: _167  and  _168
REMARK   73  A    between atoms: _167  and  _170
REMARK   74  A    between atoms: _170  and  _171
REMARK   75  A    between atoms: _171  and  _172
REMARK   76  A    between atoms: _175  and  _177
REMARK   77  A    between atoms: _177  and  _178
REMARK   78  A    between atoms: _181  and  _183
REMARK   79  A    between atoms: _183  and  _184
REMARK   80  A    between atoms: _183  and  _186
REMARK   81  A    between atoms: _186  and  _187
REMARK   82  A    between atoms: _189  and  _191
REMARK   83  A    between atoms: _191  and  _192
REMARK   84  A    between atoms: _191  and  _194
REMARK   85  A    between atoms: _194  and  _195
REMARK   86  A    between atoms: _198  and  _200
REMARK   87  A    between atoms: _200  and  _201
REMARK   88  A    between atoms: _200  and  _203
REMARK   89  A    between atoms: _203  and  _204
REMARK   90  A    between atoms: _204  and  _205
REMARK   91  A    between atoms: _207  and  _209
REMARK   92  A    between atoms: _209  and  _210
REMARK   93  A    between atoms: _212  and  _214
REMARK   94  A    between atoms: _214  and  _215
REMARK   95  A    between atoms: _214  and  _217
REMARK   96  A    between atoms: _217  and  _218
REMARK   97  A    between atoms: _218  and  _219
REMARK   98  A    between atoms: _224  and  _226
REMARK   99  A    between atoms: _226  and  _227
REMARK  100  A    between atoms: _226  and  _229
REMARK  101  A    between atoms: _229  and  _230
REMARK  102  A    between atoms: _236  and  _238
REMARK  103  A    between atoms: _238  and  _239
REMARK  104  A    between atoms: _238  and  _241
REMARK  105  A    between atoms: _241  and  _242
REMARK  106  A    between atoms: _247  and  _249
REMARK  107  A    between atoms: _249  and  _250
REMARK  108  A    between atoms: _249  and  _252
REMARK  109  A    between atoms: _252  and  _253
REMARK  110  A    between atoms: _256  and  _258
REMARK  111  A    between atoms: _258  and  _259
REMARK  112  A    between atoms: _258  and  _261
REMARK  113  A    between atoms: _261  and  _262
REMARK  114  A    between atoms: _265  and  _267
REMARK  115  A    between atoms: _267  and  _268
REMARK  116  A    between atoms: _267  and  _270
REMARK  117  A    between atoms: _270  and  _271
REMARK  118  A    between atoms: _271  and  _272
REMARK  119  A    between atoms: _272  and  _273
REMARK  120  A    between atoms: _282  and  _284
REMARK  121  A    between atoms: _284  and  _285
REMARK  122  A    between atoms: _284  and  _287
REMARK  123  A    between atoms: _287  and  _288
REMARK  124  A    between atoms: _291  and  _293
REMARK  125  A    between atoms: _293  and  _294
REMARK  126  A    between atoms: _293  and  _296
REMARK  127  A    between atoms: _296  and  _297
REMARK  128  A    between atoms: _300  and  _302
REMARK  129  A    between atoms: _302  and  _303
REMARK  130  A    between atoms: _302  and  _305
REMARK  131  A    between atoms: _308  and  _310
REMARK  132  A    between atoms: _310  and  _311
REMARK  133  A    between atoms: _310  and  _313
REMARK  134  A    between atoms: _313  and  _314
REMARK  135  A    between atoms: _317  and  _319
REMARK  136  A    between atoms: _319  and  _320
REMARK  137  A    between atoms: _319  and  _322
REMARK  138  A    between atoms: _322  and  _323
REMARK  139  A    between atoms: _323  and  _324
REMARK  140  A    between atoms: _327  and  _329
REMARK  141  A    between atoms: _329  and  _330
REMARK  142  A    between atoms: _329  and  _332
REMARK  143  A    between atoms: _332  and  _333
REMARK  144  A    between atoms: _338  and  _339
REMARK  145  A    between atoms: _341  and  _343
REMARK  146  A    between atoms: _343  and  _344
REMARK  147  A    between atoms: _343  and  _346
REMARK  148  A    between atoms: _346  and  _347
REMARK  149  A    between atoms: _347  and  _348
REMARK  150  A    between atoms: _350  and  _352
REMARK  151  A    between atoms: _352  and  _353
REMARK  152  A    between atoms: _352  and  _355
REMARK  153  A    between atoms: _355  and  _356
REMARK  154  A    between atoms: _356  and  _357
REMARK  155  A    between atoms: _360  and  _362
REMARK  156  A    between atoms: _362  and  _363
REMARK  157  A    between atoms: _362  and  _365
REMARK  158  A    between atoms: _365  and  _366
REMARK  159  A    between atoms: _371  and  _373
REMARK  160  A    between atoms: _373  and  _374
REMARK  161  A    between atoms: _376  and  _378
REMARK  162  A    between atoms: _378  and  _379
REMARK  163  A    between atoms: _378  and  _381
REMARK  164  A    between atoms: _381  and  _382
REMARK  165  A    between atoms: _384  and  _386
REMARK  166  A    between atoms: _386  and  _387
REMARK  167  A    between atoms: _386  and  _389
REMARK  168  A    between atoms: _389  and  _390
REMARK  169  A    between atoms: _392  and  _394
REMARK  170  A    between atoms: _394  and  _395
REMARK  171  A    between atoms: _397  and  _399
REMARK  172  A    between atoms: _399  and  _400
REMARK  173  A    between atoms: _399  and  _402
REMARK  174  A    between atoms: _402  and  _403
REMARK  175  A    between atoms: _403  and  _404
REMARK  176  A    between atoms: _406  and  _408
REMARK  177  A    between atoms: _408  and  _409
REMARK  178  A    between atoms: _408  and  _411
REMARK  179  A    between atoms: _411  and  _412
REMARK  180  A    between atoms: _417  and  _418
REMARK  181  A    between atoms: _420  and  _422
REMARK  182  A    between atoms: _422  and  _423
REMARK  183  A    between atoms: _422  and  _425
REMARK  184  A    between atoms: _425  and  _426
REMARK  185  A    between atoms: _429  and  _431
REMARK  186  A    between atoms: _431  and  _432
REMARK  187  A    between atoms: _431  and  _434
REMARK  188  A    between atoms: _434  and  _435
REMARK  189  A    between atoms: _440  and  _441
REMARK  190  A    between atoms: _443  and  _445
REMARK  191  A    between atoms: _445  and  _446
REMARK  192  A    between atoms: _445  and  _448
REMARK  193  A    between atoms: _451  and  _453
REMARK  194  A    between atoms: _453  and  _454
REMARK  195  A    between atoms: _453  and  _456
REMARK  196  A    between atoms: _456  and  _457
REMARK  197  A    between atoms: _462  and  _464
REMARK  198  A    between atoms: _464  and  _465
REMARK  199  A    between atoms: _464  and  _467
REMARK  200  A    between atoms: _467  and  _468
REMARK  201  A    between atoms: _468  and  _469
REMARK  202  A    between atoms: _469  and  _470
REMARK  203  A    between atoms: _479  and  _481
REMARK  204  A    between atoms: _481  and  _482
REMARK  205  A    between atoms: _481  and  _484
REMARK  206  A    between atoms: _484  and  _485
REMARK  207  A    between atoms: _488  and  _490
REMARK  208  A    between atoms: _490  and  _491
REMARK  209  A    between atoms: _490  and  _493
REMARK  210  A    between atoms: _493  and  _494
REMARK  211  A    between atoms: _494  and  _495
REMARK  212  A    between atoms: _495  and  _496
REMARK  213  A    between atoms: _505  and  _507
REMARK  214  A    between atoms: _507  and  _508
REMARK  215  A    between atoms: _507  and  _510
REMARK  216  A    between atoms: _510  and  _511
REMARK  217  A    between atoms: _516  and  _518
REMARK  218  A    between atoms: _518  and  _519
REMARK  219  A    between atoms: _518  and  _521
REMARK  220  A    between atoms: _521  and  _522
REMARK  221  A    between atoms: _525  and  _527
REMARK  222  A    between atoms: _527  and  _528
REMARK  223  A    between atoms: _527  and  _530
REMARK  224  A    between atoms: _530  and  _531
REMARK  225  A    between atoms: _534  and  _536
REMARK  226  A    between atoms: _536  and  _537
REMARK  227  A    between atoms: _536  and  _539
REMARK  228  A    between atoms: _539  and  _540
REMARK  229  A    between atoms: _543  and  _545
REMARK  230  A    between atoms: _545  and  _546
REMARK  231  A    between atoms: _545  and  _548
REMARK  232  A    between atoms: _548  and  _549
REMARK  233  A    between atoms: _554  and  _556
REMARK  234  A    between atoms: _556  and  _557
REMARK  235  A    between atoms: _556  and  _559
REMARK  236  A    between atoms: _559  and  _560
REMARK  237  A    between atoms: _560  and  _561
REMARK  238  A    between atoms: _561  and  _562
REMARK  239  A    between atoms: _562  and  _563
REMARK  240  A    between atoms: _567  and  _569
REMARK  241  A    between atoms: _569  and  _570
REMARK  242  A    between atoms: _569  and  _572
REMARK  243  A    between atoms: _575  and  _577
REMARK  244  A    between atoms: _577  and  _578
REMARK  245  A    between atoms: _577  and  _580
REMARK  246  A    between atoms: _580  and  _581
REMARK  247  A    between atoms: _583  and  _585
REMARK  248  A    between atoms: _585  and  _586
REMARK  249  A    between atoms: _585  and  _588
REMARK  250  A    between atoms: _588  and  _589
REMARK  251  A    between atoms: _592  and  _594
REMARK  252  A    between atoms: _594  and  _595
REMARK  253  A    between atoms: _594  and  _597
REMARK  254  A    between atoms: _597  and  _598
REMARK                            x       y       z     vdW  Elec       q    Type
REMARK                         _______ _______ _______ _____ _____    ______ ____
ROOT
ATOM      1  CA  SER A   1      -7.527 -19.046 -18.898  0.00  0.00    +0.163 C 
ENDROOT
BRANCH   1   2
ATOM      2  N   SER A   1      -8.161 -17.725 -19.104  0.00  0.00    -0.237 NA
ATOM      3  H   SER A   1      -7.544 -16.890 -19.166  0.00  0.00    +0.142 HD
ENDBRANCH   1   2
BRANCH   1   4
ATOM      4  C   SER A   1      -8.066 -19.765 -17.665  0.00  0.00    +0.227 C 
ATOM      5  O   SER A   1      -8.436 -20.919 -17.716  0.00  0.00    -0.287 OA
ENDBRANCH   1   4
BRANCH   1   6
ATOM      6  CB  SER A   1      -6.006 -18.901 -18.738  0.00  0.00    +0.162 C 
BRANCH   6   7
ATOM      7  OG  SER A   1      -5.450 -18.228 -19.858  0.00  0.00    -0.380 OA
ATOM      8  H   SER A   1      -4.471 -18.144 -19.738  0.00  0.00    +0.211 HD
ENDBRANCH   6   7
ENDBRANCH   1   6
TORSDOF 4
REMARK  Name = ../refined-set-2016/4p5z/4p5z_pocket.pdb
REMARK  254 active torsions:
REMARK  status: ('A' for Active; 'I' for Inactive)
REMARK    1  A    between atoms: _1  and  _3
REMARK    2  A    between atoms: _3  and  _4
REMARK    3  A    between atoms: _3  and  _6
REMARK    4  A    between atoms: _9  and  _11
REMARK    5  A    between atoms: _11  and  _12
REMARK    6  A    between atoms: _11  and  _14
REMARK    7  A    between atoms: _17  and  _19
REMARK    8  A    between atoms: _19  and  _20
REMARK    9  A    between atoms: _22  and  _24
REMARK   10  A    between atoms: _24  and  _25
REMARK   11  A    between atoms: _28  and  _30
REMARK   12  A    between atoms: _30  and  _31
REMARK   13  A    between atoms: _33  and  _35
REMARK   14  A    between atoms: _35  and  _36
REMARK   15  A    between atoms: _35  and  _38
REMARK   16  A    between atoms: _38  and  _39
REMARK   17  A    between atoms: _39  and  _40
REMARK   18  A    between atoms: _43  and  _45
REMARK   19  A    between atoms: _45  and  _46
REMARK   20  A    between atoms: _48  and  _50
REMARK   21  A    between atoms: _50  and  _51
REMARK   22  A    between atoms: _50  and  _53
REMARK   23  A    between atoms: _53  and  _54
REMARK   24  A    between atoms: _54  and  _55
REMARK   25  A    between atoms: _58  and  _60
REMARK   26  A    between atoms: _60  and  _61
REMARK   27  A    between atoms: _60  and  _63
REMARK   28  A    between atoms: _66  and  _68
REMARK   29  A    between atoms: _68  and  _69
REMARK   30  A    between atoms: _68  and  _71
REMARK   31  A    between atoms: _73  and  _75
REMARK   32  A    between atoms: _75  and  _76
REMARK   33  A    between atoms: _75  and  _78
REMARK   34  A    between atoms: _78  and  _79
REMARK   35  A    between atoms: _81  and  _83
REMARK   36  A    between atoms: _83  and  _84
REMARK   37  A    between atoms: _86  and  _88
REMARK   38  A    between atoms: _88  and  _89
REMARK   39  A    between atoms: _88  and  _91
REMARK   40  A    between atoms: _91  and  _92
REMARK   41  A    between atoms: _94  and  _96
REMARK   42  A    between atoms: _96  and  _97
REMARK   43  A    between atoms: _96  and  _99
REMARK   44  A    between atoms: _102  and  _104
REMARK   45  A    between atoms: _104  and  _105
REMARK   46  A    between atoms: _108  and  _110
REMARK   47  A    between atoms: _110  and  _111
REMARK   48  A    between atoms: _110  and  _113
REMARK   49  A    between atoms: _113  and  _114
REMARK   50  A    between atoms: _117  and  _119
REMARK   51  A    between atoms: _119  and  _120
REMARK   52  A    between atoms: _119  and  _122
REMARK   53  A    between atoms: _122  and  _123
REMARK   54  A    between atoms: _123  and  _124
REMARK   55  A    between atoms: _124  and  _125
REMARK   56  A    between atoms: _125  and  _126
REMARK   57  A    between atoms: _130  and  _132
REMARK   58  A    between atoms: _132  and  _133
REMARK   59  A    between atoms: _132  and  _135
REMARK   60  A    between atoms: _135  and  _136
REMARK   61  A    between atoms: _139  and  _141
REMARK   62  A    between atoms: _141  and  _142
REMARK   63  A    between atoms: _141  and  _144
REMARK   64  A    between atoms: _144  and  _145
REMARK   65  A    between atoms: _148  and  _150
REMARK   66  A    between atoms: _150  and  _151
REMARK   67  A    between atoms: _150  and  _153
REMARK   68  A    between atoms: _153  and  _154
REMARK   69  A    between atoms: _160  and  _162
REMARK   70  A    between atoms: _162  and  _163
REMARK   71  A    between atoms: _165  and  _167
REMARK   72  A    between atoms: _167  and  _168
REMARK   73  A    between atoms: _167  and  _170
REMARK   74  A    between atoms: _170  and  _171
REMARK   75  A    between atoms: _171  and  _172
REMARK   76  A    between atoms: _175  and  _177
REMARK   77  A    between atoms: _177  and  _178
REMARK   78  A    between atoms: _181  and  _183
REMARK   79  A    between atoms: _183  and  _184
REMARK   80  A    between atoms: _183  and  _186
REMARK   81  A    between atoms: _186  and  _187
REMARK   82  A    between atoms: _189  and  _191
REMARK   83  A    between atoms: _191  and  _192
REMARK   84  A    between atoms: _191  and  _194
REMARK   85  A    between atoms: _194  and  _195
REMARK   86  A    between atoms: _198  and  _200
REMARK   87  A    between atoms: _200  and  _201
REMARK   88  A    between atoms: _200  and  _203
REMARK   89  A    between atoms: _203  and  _204
REMARK   90  A    between atoms: _204  and  _205
REMARK   91  A    between atoms: _207  and  _209
REMARK   92  A    between atoms: _209  and  _210
REMARK   93  A    between atoms: _212  and  _214
REMARK   94  A    between atoms: _214  and  _215
REMARK   95  A    between atoms: _214  and  _217
REMARK   96  A    between atoms: _217  and  _218
REMARK   97  A    between atoms: _218  and  _219
REMARK   98  A    between atoms: _224  and  _226
REMARK   99  A    between atoms: _226  and  _227
REMARK  100  A    between atoms: _226  and  _229
REMARK  101  A    between atoms: _229  and  _230
REMARK  102  A    between atoms: _236  and  _238
REMARK  103  A    between atoms: _238  and  _239
REMARK  104  A    between atoms: _238  and  _241
REMARK  105  A    between atoms: _241  and  _242
REMARK  106  A    between atoms: _247  and  _249
REMARK  107  A    between atoms: _249  and  _250
REMARK  108  A    between atoms: _249  and  _252
REMARK  109  A    between atoms: _252  and  _253
REMARK  110  A    between atoms: _256  and  _258
REMARK  111  A    between atoms: _258  and  _259
REMARK  112  A    between atoms: _258  and  _261
REMARK  113  A    between atoms: _261  and  _262
REMARK  114  A    between atoms: _265  and  _267
REMARK  115  A    between atoms: _267  and  _268
REMARK  116  A    between atoms: _267  and  _270
REMARK  117  A    between atoms: _270  and  _271
REMARK  118  A    between atoms: _271  and  _272
REMARK  119  A    between atoms: _272  and  _273
REMARK  120  A    between atoms: _282  and  _284
REMARK  121  A    between atoms: _284  and  _285
REMARK  122  A    between atoms: _284  and  _287
REMARK  123  A    between atoms: _287  and  _288
REMARK  124  A    between atoms: _291  and  _293
REMARK  125  A    between atoms: _293  and  _294
REMARK  126  A    between atoms: _293  and  _296
REMARK  127  A    between atoms: _296  and  _297
REMARK  128  A    between atoms: _300  and  _302
REMARK  129  A    between atoms: _302  and  _303
REMARK  130  A    between atoms: _302  and  _305
REMARK  131  A    between atoms: _308  and  _310
REMARK  132  A    between atoms: _310  and  _311
REMARK  133  A    between atoms: _310  and  _313
REMARK  134  A    between atoms: _313  and  _314
REMARK  135  A    between atoms: _317  and  _319
REMARK  136  A    between atoms: _319  and  _320
REMARK  137  A    between atoms: _319  and  _322
REMARK  138  A    between atoms: _322  and  _323
REMARK  139  A    between atoms: _323  and  _324
REMARK  140  A    between atoms: _327  and  _329
REMARK  141  A    between atoms: _329  and  _330
REMARK  142  A    between atoms: _329  and  _332
REMARK  143  A    between atoms: _332  and  _333
REMARK  144  A    between atoms: _338  and  _339
REMARK  145  A    between atoms: _341  and  _343
REMARK  146  A    between atoms: _343  and  _344
REMARK  147  A    between atoms: _343  and  _346
REMARK  148  A    between atoms: _346  and  _347
REMARK  149  A    between atoms: _347  and  _348
REMARK  150  A    between atoms: _350  and  _352
REMARK  151  A    between atoms: _352  and  _353
REMARK  152  A    between atoms: _352  and  _355
REMARK  153  A    between atoms: _355  and  _356
REMARK  154  A    between atoms: _356  and  _357
REMARK  155  A    between atoms: _360  and  _362
REMARK  156  A    between atoms: _362  and  _363
REMARK  157  A    between atoms: _362  and  _365
REMARK  158  A    between atoms: _365  and  _366
REMARK  159  A    between atoms: _371  and  _373
REMARK  160  A    between atoms: _373  and  _374
REMARK  161  A    between atoms: _376  and  _378
REMARK  162  A    between atoms: _378  and  _379
REMARK  163  A    between atoms: _378  and  _381
REMARK  164  A    between atoms: _381  and  _382
REMARK  165  A    between atoms: _384  and  _386
REMARK  166  A    between atoms: _386  and  _387
REMARK  167  A    between atoms: _386  and  _389
REMARK  168  A    between atoms: _389  and  _390
REMARK  169  A    between atoms: _392  and  _394
REMARK  170  A    between atoms: _394  and  _395
REMARK  171  A    between atoms: _397  and  _399
REMARK  172  A    between atoms: _399  and  _400
REMARK  173  A    between atoms: _399  and  _402
REMARK  174  A    between atoms: _402  and  _403
REMARK  175  A    between atoms: _403  and  _404
REMARK  176  A    between atoms: _406  and  _408
REMARK  177  A    between atoms: _408  and  _409
REMARK  178  A    between atoms: _408  and  _411
REMARK  179  A    between atoms: _411  and  _412
REMARK  180  A    between atoms: _417  and  _418
REMARK  181  A    between atoms: _420  and  _422
REMARK  182  A    between atoms: _422  and  _423
REMARK  183  A    between atoms: _422  and  _425
REMARK  184  A    between atoms: _425  and  _426
REMARK  185  A    between atoms: _429  and  _431
REMARK  186  A    between atoms: _431  and  _432
REMARK  187  A    between atoms: _431  and  _434
REMARK  188  A    between atoms: _434  and  _435
REMARK  189  A    between atoms: _440  and  _441
REMARK  190  A    between atoms: _443  and  _445
REMARK  191  A    between atoms: _445  and  _446
REMARK  192  A    between atoms: _445  and  _448
REMARK  193  A    between atoms: _451  and  _453
REMARK  194  A    between atoms: _453  and  _454
REMARK  195  A    between atoms: _453  and  _456
REMARK  196  A    between atoms: _456  and  _457
REMARK  197  A    between atoms: _462  and  _464
REMARK  198  A    between atoms: _464  and  _465
REMARK  199  A    between atoms: _464  and  _467
REMARK  200  A    between atoms: _467  and  _468
REMARK  201  A    between atoms: _468  and  _469
REMARK  202  A    between atoms: _469  and  _470
REMARK  203  A    between atoms: _479  and  _481
REMARK  204  A    between atoms: _481  and  _482
REMARK  205  A    between atoms: _481  and  _484
REMARK  206  A    between atoms: _484  and  _485
REMARK  207  A    between atoms: _488  and  _490
REMARK  208  A    between atoms: _490  and  _491
REMARK  209  A    between atoms: _490  and  _493
REMARK  210  A    between atoms: _493  and  _494
REMARK  211  A    between atoms: _494  and  _495
REMARK  212  A    between atoms: _495  and  _496
REMARK  213  A    between atoms: _505  and  _507
REMARK  214  A    between atoms: _507  and  _508
REMARK  215  A    between atoms: _507  and  _510
REMARK  216  A    between atoms: _510  and  _511
REMARK  217  A    between atoms: _516  and  _518
REMARK  218  A    between atoms: _518  and  _519
REMARK  219  A    between atoms: _518  and  _521
REMARK  220  A    between atoms: _521  and  _522
REMARK  221  A    between atoms: _525  and  _527
REMARK  222  A    between atoms: _527  and  _528
REMARK  223  A    between atoms: _527  and  _530
REMARK  224  A    between atoms: _530  and  _531
REMARK  225  A    between atoms: _534  and  _536
REMARK  226  A    between atoms: _536  and  _537
REMARK  227  A    between atoms: _536  and  _539
REMARK  228  A    between atoms: _539  and  _540
REMARK  229  A    between atoms: _543  and  _545
REMARK  230  A    between atoms: _545  and  _546
REMARK  231  A    between atoms: _545  and  _548
REMARK  232  A    between atoms: _548  and  _549
REMARK  233  A    between atoms: _554  and  _556
REMARK  234  A    between atoms: _556  and  _557
REMARK  235  A    between atoms: _556  and  _559
REMARK  236  A    between atoms: _559  and  _560
REMARK  237  A    between atoms: _560  and  _561
REMARK  238  A    between atoms: _561  and  _562
REMARK  239  A    between atoms: _562  and  _563
REMARK  240  A    between atoms: _567  and  _569
REMARK  241  A    between atoms: _569  and  _570
REMARK  242  A    between atoms: _569  and  _572
REMARK  243  A    between atoms: _575  and  _577
REMARK  244  A    between atoms: _577  and  _578
REMARK  245  A    between atoms: _577  and  _580
REMARK  246  A    between atoms: _580  and  _581
REMARK  247  A    between atoms: _583  and  _585
REMARK  248  A    between atoms: _585  and  _586
REMARK  249  A    between atoms: _585  and  _588
REMARK  250  A    between atoms: _588  and  _589
REMARK  251  A    between atoms: _592  and  _594
REMARK  252  A    between atoms: _594  and  _595
REMARK  253  A    between atoms: _594  and  _597
REMARK  254  A    between atoms: _597  and  _598
REMARK                            x       y       z     vdW  Elec       q    Type
REMARK                         _______ _______ _______ _____ _____    ______ ____
ROOT
ATOM      1  C   GLY A   1     -11.494  -0.258 -11.256  0.00  0.00    +0.240 C 
ATOM      2  O   GLY A   1     -10.775   0.758 -11.336  0.00  0.00    -0.274 OA
ATOM      3  N   MET A   2     -12.419  -0.538 -12.164  0.00  0.00    -0.298 N 
ATOM      4  H   MET A   2     -12.994  -1.400 -12.072  0.00  0.00    +0.150 HD
ENDROOT
BRANCH   1   5
ATOM      5  CA  GLY A   1     -11.338  -1.248 -10.093  0.00  0.00    +0.169 C 
BRANCH   5   6
ATOM      6  N   GLY A   1     -12.657  -1.719  -9.701  0.00  0.00    -0.236 NA
ATOM      7  H   GLY A   1     -12.909  -2.717  -9.848  0.00  0.00    +0.142 HD
ENDBRANCH   5   6
ENDBRANCH   1   5
BRANCH   3   8
ATOM      8  CA  MET A   2     -12.631   0.367 -13.298  0.00  0.00    +0.138 C 
BRANCH   8   9
ATOM      9  C   MET A   2     -13.273   1.694 -12.893  0.00  0.00    +0.227 C 
ATOM     10  O   MET A   2     -13.022   2.718 -13.522  0.00  0.00    -0.286 OA
ENDBRANCH   8   9
BRANCH   8  11
ATOM     11  CB  MET A   2     -13.493  -0.278 -14.358  0.00  0.00    +0.039 C 
BRANCH  11  12
ATOM     12  CG  MET A   2     -12.858  -1.450 -15.145  0.00  0.00    +0.060 C 
BRANCH  12  13
ATOM     13  SD  MET A   2     -11.284  -1.040 -15.918  0.00  0.00    -0.139 S 
ATOM     14  CE  MET A   2     -11.837   0.258 -17.111  0.00  0.00    +0.069 C 
ENDBRANCH  12  13
ENDBRANCH  11  12
ENDBRANCH   8  11
ENDBRANCH   3   8
TORSDOF 7
REMARK  Name = ../refined-set-2016/4p5z/4p5z_pocket.pdb
REMARK  254 active torsions:
REMARK  status: ('A' for Active; 'I' for Inactive)
REMARK    1  A    between atoms: _1  and  _3
REMARK    2  A    between atoms: _3  and  _4
REMARK    3  A    between atoms: _3  and  _6
REMARK    4  A    between atoms: _9  and  _11
REMARK    5  A    between atoms: _11  and  _12
REMARK    6  A    between atoms: _11  and  _14
REMARK    7  A    between atoms: _17  and  _19
REMARK    8  A    between atoms: _19  and  _20
REMARK    9  A    between atoms: _22  and  _24
REMARK   10  A    between atoms: _24  and  _25
REMARK   11  A    between atoms: _28  and  _30
REMARK   12  A    between atoms: _30  and  _31
REMARK   13  A    between atoms: _33  and  _35
REMARK   14  A    between atoms: _35  and  _36
REMARK   15  A    between atoms: _35  and  _38
REMARK   16  A    between atoms: _38  and  _39
REMARK   17  A    between atoms: _39  and  _40
REMARK   18  A    between atoms: _43  and  _45
REMARK   19  A    between atoms: _45  and  _46
REMARK   20  A    between atoms: _48  and  _50
REMARK   21  A    between atoms: _50  and  _51
REMARK   22  A    between atoms: _50  and  _53
REMARK   23  A    between atoms: _53  and  _54
REMARK   24  A    between atoms: _54  and  _55
REMARK   25  A    between atoms: _58  and  _60
REMARK   26  A    between atoms: _60  and  _61
REMARK   27  A    between atoms: _60  and  _63
REMARK   28  A    between atoms: _66  and  _68
REMARK   29  A    between atoms: _68  and  _69
REMARK   30  A    between atoms: _68  and  _71
REMARK   31  A    between atoms: _73  and  _75
REMARK   32  A    between atoms: _75  and  _76
REMARK   33  A    between atoms: _75  and  _78
REMARK   34  A    between atoms: _78  and  _79
REMARK   35  A    between atoms: _81  and  _83
REMARK   36  A    between atoms: _83  and  _84
REMARK   37  A    between atoms: _86  and  _88
REMARK   38  A    between atoms: _88  and  _89
REMARK   39  A    between atoms: _88  and  _91
REMARK   40  A    between atoms: _91  and  _92
REMARK   41  A    between atoms: _94  and  _96
REMARK   42  A    between atoms: _96  and  _97
REMARK   43  A    between atoms: _96  and  _99
REMARK   44  A    between atoms: _102  and  _104
REMARK   45  A    between atoms: _104  and  _105
REMARK   46  A    between atoms: _108  and  _110
REMARK   47  A    between atoms: _110  and  _111
REMARK   48  A    between atoms: _110  and  _113
REMARK   49  A    between atoms: _113  and  _114
REMARK   50  A    between atoms: _117  and  _119
REMARK   51  A    between atoms: _119  and  _120
REMARK   52  A    between atoms: _119  and  _122
REMARK   53  A    between atoms: _122  and  _123
REMARK   54  A    between atoms: _123  and  _124
REMARK   55  A    between atoms: _124  and  _125
REMARK   56  A    between atoms: _125  and  _126
REMARK   57  A    between atoms: _130  and  _132
REMARK   58  A    between atoms: _132  and  _133
REMARK   59  A    between atoms: _132  and  _135
REMARK   60  A    between atoms: _135  and  _136
REMARK   61  A    between atoms: _139  and  _141
REMARK   62  A    between atoms: _141  and  _142
REMARK   63  A    between atoms: _141  and  _144
REMARK   64  A    between atoms: _144  and  _145
REMARK   65  A    between atoms: _148  and  _150
REMARK   66  A    between atoms: _150  and  _151
REMARK   67  A    between atoms: _150  and  _153
REMARK   68  A    between atoms: _153  and  _154
REMARK   69  A    between atoms: _160  and  _162
REMARK   70  A    between atoms: _162  and  _163
REMARK   71  A    between atoms: _165  and  _167
REMARK   72  A    between atoms: _167  and  _168
REMARK   73  A    between atoms: _167  and  _170
REMARK   74  A    between atoms: _170  and  _171
REMARK   75  A    between atoms: _171  and  _172
REMARK   76  A    between atoms: _175  and  _177
REMARK   77  A    between atoms: _177  and  _178
REMARK   78  A    between atoms: _181  and  _183
REMARK   79  A    between atoms: _183  and  _184
REMARK   80  A    between atoms: _183  and  _186
REMARK   81  A    between atoms: _186  and  _187
REMARK   82  A    between atoms: _189  and  _191
REMARK   83  A    between atoms: _191  and  _192
REMARK   84  A    between atoms: _191  and  _194
REMARK   85  A    between atoms: _194  and  _195
REMARK   86  A    between atoms: _198  and  _200
REMARK   87  A    between atoms: _200  and  _201
REMARK   88  A    between atoms: _200  and  _203
REMARK   89  A    between atoms: _203  and  _204
REMARK   90  A    between atoms: _204  and  _205
REMARK   91  A    between atoms: _207  and  _209
REMARK   92  A    between atoms: _209  and  _210
REMARK   93  A    between atoms: _212  and  _214
REMARK   94  A    between atoms: _214  and  _215
REMARK   95  A    between atoms: _214  and  _217
REMARK   96  A    between atoms: _217  and  _218
REMARK   97  A    between atoms: _218  and  _219
REMARK   98  A    between atoms: _224  and  _226
REMARK   99  A    between atoms: _226  and  _227
REMARK  100  A    between atoms: _226  and  _229
REMARK  101  A    between atoms: _229  and  _230
REMARK  102  A    between atoms: _236  and  _238
REMARK  103  A    between atoms: _238  and  _239
REMARK  104  A    between atoms: _238  and  _241
REMARK  105  A    between atoms: _241  and  _242
REMARK  106  A    between atoms: _247  and  _249
REMARK  107  A    between atoms: _249  and  _250
REMARK  108  A    between atoms: _249  and  _252
REMARK  109  A    between atoms: _252  and  _253
REMARK  110  A    between atoms: _256  and  _258
REMARK  111  A    between atoms: _258  and  _259
REMARK  112  A    between atoms: _258  and  _261
REMARK  113  A    between atoms: _261  and  _262
REMARK  114  A    between atoms: _265  and  _267
REMARK  115  A    between atoms: _267  and  _268
REMARK  116  A    between atoms: _267  and  _270
REMARK  117  A    between atoms: _270  and  _271
REMARK  118  A    between atoms: _271  and  _272
REMARK  119  A    between atoms: _272  and  _273
REMARK  120  A    between atoms: _282  and  _284
REMARK  121  A    between atoms: _284  and  _285
REMARK  122  A    between atoms: _284  and  _287
REMARK  123  A    between atoms: _287  and  _288
REMARK  124  A    between atoms: _291  and  _293
REMARK  125  A    between atoms: _293  and  _294
REMARK  126  A    between atoms: _293  and  _296
REMARK  127  A    between atoms: _296  and  _297
REMARK  128  A    between atoms: _300  and  _302
REMARK  129  A    between atoms: _302  and  _303
REMARK  130  A    between atoms: _302  and  _305
REMARK  131  A    between atoms: _308  and  _310
REMARK  132  A    between atoms: _310  and  _311
REMARK  133  A    between atoms: _310  and  _313
REMARK  134  A    between atoms: _313  and  _314
REMARK  135  A    between atoms: _317  and  _319
REMARK  136  A    between atoms: _319  and  _320
REMARK  137  A    between atoms: _319  and  _322
REMARK  138  A    between atoms: _322  and  _323
REMARK  139  A    between atoms: _323  and  _324
REMARK  140  A    between atoms: _327  and  _329
REMARK  141  A    between atoms: _329  and  _330
REMARK  142  A    between atoms: _329  and  _332
REMARK  143  A    between atoms: _332  and  _333
REMARK  144  A    between atoms: _338  and  _339
REMARK  145  A    between atoms: _341  and  _343
REMARK  146  A    between atoms: _343  and  _344
REMARK  147  A    between atoms: _343  and  _346
REMARK  148  A    between atoms: _346  and  _347
REMARK  149  A    between atoms: _347  and  _348
REMARK  150  A    between atoms: _350  and  _352
REMARK  151  A    between atoms: _352  and  _353
REMARK  152  A    between atoms: _352  and  _355
REMARK  153  A    between atoms: _355  and  _356
REMARK  154  A    between atoms: _356  and  _357
REMARK  155  A    between atoms: _360  and  _362
REMARK  156  A    between atoms: _362  and  _363
REMARK  157  A    between atoms: _362  and  _365
REMARK  158  A    between atoms: _365  and  _366
REMARK  159  A    between atoms: _371  and  _373
REMARK  160  A    between atoms: _373  and  _374
REMARK  161  A    between atoms: _376  and  _378
REMARK  162  A    between atoms: _378  and  _379
REMARK  163  A    between atoms: _378  and  _381
REMARK  164  A    between atoms: _381  and  _382
REMARK  165  A    between atoms: _384  and  _386
REMARK  166  A    between atoms: _386  and  _387
REMARK  167  A    between atoms: _386  and  _389
REMARK  168  A    between atoms: _389  and  _390
REMARK  169  A    between atoms: _392  and  _394
REMARK  170  A    between atoms: _394  and  _395
REMARK  171  A    between atoms: _397  and  _399
REMARK  172  A    between atoms: _399  and  _400
REMARK  173  A    between atoms: _399  and  _402
REMARK  174  A    between atoms: _402  and  _403
REMARK  175  A    between atoms: _403  and  _404
REMARK  176  A    between atoms: _406  and  _408
REMARK  177  A    between atoms: _408  and  _409
REMARK  178  A    between atoms: _408  and  _411
REMARK  179  A    between atoms: _411  and  _412
REMARK  180  A    between atoms: _417  and  _418
REMARK  181  A    between atoms: _420  and  _422
REMARK  182  A    between atoms: _422  and  _423
REMARK  183  A    between atoms: _422  and  _425
REMARK  184  A    between atoms: _425  and  _426
REMARK  185  A    between atoms: _429  and  _431
REMARK  186  A    between atoms: _431  and  _432
REMARK  187  A    between atoms: _431  and  _434
REMARK  188  A    between atoms: _434  and  _435
REMARK  189  A    between atoms: _440  and  _441
REMARK  190  A    between atoms: _443  and  _445
REMARK  191  A    between atoms: _445  and  _446
REMARK  192  A    between atoms: _445  and  _448
REMARK  193  A    between atoms: _451  and  _453
REMARK  194  A    between atoms: _453  and  _454
REMARK  195  A    between atoms: _453  and  _456
REMARK  196  A    between atoms: _456  and  _457
REMARK  197  A    between atoms: _462  and  _464
REMARK  198  A    between atoms: _464  and  _465
REMARK  199  A    between atoms: _464  and  _467
REMARK  200  A    between atoms: _467  and  _468
REMARK  201  A    between atoms: _468  and  _469
REMARK  202  A    between atoms: _469  and  _470
REMARK  203  A    between atoms: _479  and  _481
REMARK  204  A    between atoms: _481  and  _482
REMARK  205  A    between atoms: _481  and  _484
REMARK  206  A    between atoms: _484  and  _485
REMARK  207  A    between atoms: _488  and  _490
REMARK  208  A    between atoms: _490  and  _491
REMARK  209  A    between atoms: _490  and  _493
REMARK  210  A    between atoms: _493  and  _494
REMARK  211  A    between atoms: _494  and  _495
REMARK  212  A    between atoms: _495  and  _496
REMARK  213  A    between atoms: _505  and  _507
REMARK  214  A    between atoms: _507  and  _508
REMARK  215  A    between atoms: _507  and  _510
REMARK  216  A    between atoms: _510  and  _511
REMARK  217  A    between atoms: _516  and  _518
REMARK  218  A    between atoms: _518  and  _519
REMARK  219  A    between atoms: _518  and  _521
REMARK  220  A    between atoms: _521  and  _522
REMARK  221  A    between atoms: _525  and  _527
REMARK  222  A    between atoms: _527  and  _528
REMARK  223  A    between atoms: _527  and  _530
REMARK  224  A    between atoms: _530  and  _531
REMARK  225  A    between atoms: _534  and  _536
REMARK  226  A    between atoms: _536  and  _537
REMARK  227  A    between atoms: _536  and  _539
REMARK  228  A    between atoms: _539  and  _540
REMARK  229  A    between atoms: _543  and  _545
REMARK  230  A    between atoms: _545  and  _546
REMARK  231  A    between atoms: _545  and  _548
REMARK  232  A    between atoms: _548  and  _549
REMARK  233  A    between atoms: _554  and  _556
REMARK  234  A    between atoms: _556  and  _557
REMARK  235  A    between atoms: _556  and  _559
REMARK  236  A    between atoms: _559  and  _560
REMARK  237  A    between atoms: _560  and  _561
REMARK  238  A    between atoms: _561  and  _562
REMARK  239  A    between atoms: _562  and  _563
REMARK  240  A    between atoms: _567  and  _569
REMARK  241  A    between atoms: _569  and  _570
REMARK  242  A    between atoms: _569  and  _572
REMARK  243  A    between atoms: _575  and  _577
REMARK  244  A    between atoms: _577  and  _578
REMARK  245  A    between atoms: _577  and  _580
REMARK  246  A    between atoms: _580  and  _581
REMARK  247  A    between atoms: _583  and  _585
REMARK  248  A    between atoms: _585  and  _586
REMARK  249  A    between atoms: _585  and  _588
REMARK  250  A    between atoms: _588  and  _589
REMARK  251  A    between atoms: _592  and  _594
REMARK  252  A    between atoms: _594  and  _595
REMARK  253  A    between atoms: _594  and  _597
REMARK  254  A    between atoms: _597  and  _598
REMARK                            x       y       z     vdW  Elec       q    Type
REMARK                         _______ _______ _______ _____ _____    ______ ____
ROOT
ATOM      1  CA  TYR A   1     -11.432   3.900  -9.660  0.00  0.00    +0.149 C 
ENDROOT
BRANCH   1   2
ATOM      2  C   TYR A   1     -10.612   4.475 -10.789  0.00  0.00    +0.239 C 
ATOM      3  O   TYR A   1     -10.233   5.648 -10.745  0.00  0.00    -0.274 OA
ATOM      4  N   LEU A   2     -10.274   3.624 -11.759  0.00  0.00    -0.298 N 
ATOM      5  H   LEU A   2     -10.589   2.635 -11.699  0.00  0.00    +0.150 HD
BRANCH   4   6
ATOM      6  CA  LEU A   2      -9.471   4.050 -12.905  0.00  0.00    +0.137 C 
BRANCH   6   7
ATOM      7  C   LEU A   2     -10.140   5.219 -13.669  0.00  0.00    +0.227 C 
ATOM      8  O   LEU A   2      -9.472   6.177 -14.054  0.00  0.00    -0.286 OA
ENDBRANCH   6   7
BRANCH   6   9
ATOM      9  CB  LEU A   2      -9.265   2.894 -13.891  0.00  0.00    +0.028 C 
BRANCH   9  10
ATOM     10  CG  LEU A   2      -8.284   1.818 -13.467  0.00  0.00    +0.002 C 
ATOM     11  CD2 LEU A   2      -6.918   2.384 -13.053  0.00  0.00    +0.000 C 
ATOM     12  CD1 LEU A   2      -8.142   0.897 -14.665  0.00  0.00    +0.000 C 
ENDBRANCH   9  10
ENDBRANCH   6   9
ENDBRANCH   4   6
ENDBRANCH   1   2
BRANCH   1  13
ATOM     13  N   TYR A   1     -12.565   3.153 -10.207  0.00  0.00    -0.238 NA
ATOM     14  H   TYR A   1     -12.568   2.116 -10.123  0.00  0.00    +0.142 HD
ENDBRANCH   1  13
BRANCH   1  15
ATOM     15  CB  TYR A   1     -10.489   3.032  -8.790  0.00  0.00    +0.053 C 
BRANCH  15  16
ATOM     16  CG  TYR A   1      -9.383   3.844  -8.097  0.00  0.00    -0.020 A 
ATOM     17  CD2 TYR A   1      -9.722   4.809  -7.166  0.00  0.00    -0.001 A 
ATOM     18  CE2 TYR A   1      -8.744   5.568  -6.497  0.00  0.00    +0.036 A 
ATOM     19  CZ  TYR A   1      -7.391   5.385  -6.749  0.00  0.00    +0.134 A 
ATOM     20  CE1 TYR A   1      -7.002   4.448  -7.680  0.00  0.00    +0.036 A 
ATOM     21  CD1 TYR A   1      -8.016   3.661  -8.369  0.00  0.00    -0.001 A 
BRANCH  19  22
ATOM     22  OH  TYR A   1      -6.483   6.222  -6.038  0.00  0.00    -0.506 OA
ATOM     23  HH  TYR A   1      -6.990   6.812  -5.426  0.00  0.00    +0.292 HD
ENDBRANCH  19  22
ENDBRANCH  15  16
ENDBRANCH   1  15
TORSDOF 9
REMARK  Name = ../refined-set-2016/4p5z/4p5z_pocket.pdb
REMARK  254 active torsions:
REMARK  status: ('A' for Active; 'I' for Inactive)
REMARK    1  A    between atoms: _1  and  _3
REMARK    2  A    between atoms: _3  and  _4
REMARK    3  A    between atoms: _3  and  _6
REMARK    4  A    between atoms: _9  and  _11
REMARK    5  A    between atoms: _11  and  _12
REMARK    6  A    between atoms: _11  and  _14
REMARK    7  A    between atoms: _17  and  _19
REMARK    8  A    between atoms: _19  and  _20
REMARK    9  A    between atoms: _22  and  _24
REMARK   10  A    between atoms: _24  and  _25
REMARK   11  A    between atoms: _28  and  _30
REMARK   12  A    between atoms: _30  and  _31
REMARK   13  A    between atoms: _33  and  _35
REMARK   14  A    between atoms: _35  and  _36
REMARK   15  A    between atoms: _35  and  _38
REMARK   16  A    between atoms: _38  and  _39
REMARK   17  A    between atoms: _39  and  _40
REMARK   18  A    between atoms: _43  and  _45
REMARK   19  A    between atoms: _45  and  _46
REMARK   20  A    between atoms: _48  and  _50
REMARK   21  A    between atoms: _50  and  _51
REMARK   22  A    between atoms: _50  and  _53
REMARK   23  A    between atoms: _53  and  _54
REMARK   24  A    between atoms: _54  and  _55
REMARK   25  A    between atoms: _58  and  _60
REMARK   26  A    between atoms: _60  and  _61
REMARK   27  A    between atoms: _60  and  _63
REMARK   28  A    between atoms: _66  and  _68
REMARK   29  A    between atoms: _68  and  _69
REMARK   30  A    between atoms: _68  and  _71
REMARK   31  A    between atoms: _73  and  _75
REMARK   32  A    between atoms: _75  and  _76
REMARK   33  A    between atoms: _75  and  _78
REMARK   34  A    between atoms: _78  and  _79
REMARK   35  A    between atoms: _81  and  _83
REMARK   36  A    between atoms: _83  and  _84
REMARK   37  A    between atoms: _86  and  _88
REMARK   38  A    between atoms: _88  and  _89
REMARK   39  A    between atoms: _88  and  _91
REMARK   40  A    between atoms: _91  and  _92
REMARK   41  A    between atoms: _94  and  _96
REMARK   42  A    between atoms: _96  and  _97
REMARK   43  A    between atoms: _96  and  _99
REMARK   44  A    between atoms: _102  and  _104
REMARK   45  A    between atoms: _104  and  _105
REMARK   46  A    between atoms: _108  and  _110
REMARK   47  A    between atoms: _110  and  _111
REMARK   48  A    between atoms: _110  and  _113
REMARK   49  A    between atoms: _113  and  _114
REMARK   50  A    between atoms: _117  and  _119
REMARK   51  A    between atoms: _119  and  _120
REMARK   52  A    between atoms: _119  and  _122
REMARK   53  A    between atoms: _122  and  _123
REMARK   54  A    between atoms: _123  and  _124
REMARK   55  A    between atoms: _124  and  _125
REMARK   56  A    between atoms: _125  and  _126
REMARK   57  A    between atoms: _130  and  _132
REMARK   58  A    between atoms: _132  and  _133
REMARK   59  A    between atoms: _132  and  _135
REMARK   60  A    between atoms: _135  and  _136
REMARK   61  A    between atoms: _139  and  _141
REMARK   62  A    between atoms: _141  and  _142
REMARK   63  A    between atoms: _141  and  _144
REMARK   64  A    between atoms: _144  and  _145
REMARK   65  A    between atoms: _148  and  _150
REMARK   66  A    between atoms: _150  and  _151
REMARK   67  A    between atoms: _150  and  _153
REMARK   68  A    between atoms: _153  and  _154
REMARK   69  A    between atoms: _160  and  _162
REMARK   70  A    between atoms: _162  and  _163
REMARK   71  A    between atoms: _165  and  _167
REMARK   72  A    between atoms: _167  and  _168
REMARK   73  A    between atoms: _167  and  _170
REMARK   74  A    between atoms: _170  and  _171
REMARK   75  A    between atoms: _171  and  _172
REMARK   76  A    between atoms: _175  and  _177
REMARK   77  A    between atoms: _177  and  _178
REMARK   78  A    between atoms: _181  and  _183
REMARK   79  A    between atoms: _183  and  _184
REMARK   80  A    between atoms: _183  and  _186
REMARK   81  A    between atoms: _186  and  _187
REMARK   82  A    between atoms: _189  and  _191
REMARK   83  A    between atoms: _191  and  _192
REMARK   84  A    between atoms: _191  and  _194
REMARK   85  A    between atoms: _194  and  _195
REMARK   86  A    between atoms: _198  and  _200
REMARK   87  A    between atoms: _200  and  _201
REMARK   88  A    between atoms: _200  and  _203
REMARK   89  A    between atoms: _203  and  _204
REMARK   90  A    between atoms: _204  and  _205
REMARK   91  A    between atoms: _207  and  _209
REMARK   92  A    between atoms: _209  and  _210
REMARK   93  A    between atoms: _212  and  _214
REMARK   94  A    between atoms: _214  and  _215
REMARK   95  A    between atoms: _214  and  _217
REMARK   96  A    between atoms: _217  and  _218
REMARK   97  A    between atoms: _218  and  _219
REMARK   98  A    between atoms: _224  and  _226
REMARK   99  A    between atoms: _226  and  _227
REMARK  100  A    between atoms: _226  and  _229
REMARK  101  A    between atoms: _229  and  _230
REMARK  102  A    between atoms: _236  and  _238
REMARK  103  A    between atoms: _238  and  _239
REMARK  104  A    between atoms: _238  and  _241
REMARK  105  A    between atoms: _241  and  _242
REMARK  106  A    between atoms: _247  and  _249
REMARK  107  A    between atoms: _249  and  _250
REMARK  108  A    between atoms: _249  and  _252
REMARK  109  A    between atoms: _252  and  _253
REMARK  110  A    between atoms: _256  and  _258
REMARK  111  A    between atoms: _258  and  _259
REMARK  112  A    between atoms: _258  and  _261
REMARK  113  A    between atoms: _261  and  _262
REMARK  114  A    between atoms: _265  and  _267
REMARK  115  A    between atoms: _267  and  _268
REMARK  116  A    between atoms: _267  and  _270
REMARK  117  A    between atoms: _270  and  _271
REMARK  118  A    between atoms: _271  and  _272
REMARK  119  A    between atoms: _272  and  _273
REMARK  120  A    between atoms: _282  and  _284
REMARK  121  A    between atoms: _284  and  _285
REMARK  122  A    between atoms: _284  and  _287
REMARK  123  A    between atoms: _287  and  _288
REMARK  124  A    between atoms: _291  and  _293
REMARK  125  A    between atoms: _293  and  _294
REMARK  126  A    between atoms: _293  and  _296
REMARK  127  A    between atoms: _296  and  _297
REMARK  128  A    between atoms: _300  and  _302
REMARK  129  A    between atoms: _302  and  _303
REMARK  130  A    between atoms: _302  and  _305
REMARK  131  A    between atoms: _308  and  _310
REMARK  132  A    between atoms: _310  and  _311
REMARK  133  A    between atoms: _310  and  _313
REMARK  134  A    between atoms: _313  and  _314
REMARK  135  A    between atoms: _317  and  _319
REMARK  136  A    between atoms: _319  and  _320
REMARK  137  A    between atoms: _319  and  _322
REMARK  138  A    between atoms: _322  and  _323
REMARK  139  A    between atoms: _323  and  _324
REMARK  140  A    between atoms: _327  and  _329
REMARK  141  A    between atoms: _329  and  _330
REMARK  142  A    between atoms: _329  and  _332
REMARK  143  A    between atoms: _332  and  _333
REMARK  144  A    between atoms: _338  and  _339
REMARK  145  A    between atoms: _341  and  _343
REMARK  146  A    between atoms: _343  and  _344
REMARK  147  A    between atoms: _343  and  _346
REMARK  148  A    between atoms: _346  and  _347
REMARK  149  A    between atoms: _347  and  _348
REMARK  150  A    between atoms: _350  and  _352
REMARK  151  A    between atoms: _352  and  _353
REMARK  152  A    between atoms: _352  and  _355
REMARK  153  A    between atoms: _355  and  _356
REMARK  154  A    between atoms: _356  and  _357
REMARK  155  A    between atoms: _360  and  _362
REMARK  156  A    between atoms: _362  and  _363
REMARK  157  A    between atoms: _362  and  _365
REMARK  158  A    between atoms: _365  and  _366
REMARK  159  A    between atoms: _371  and  _373
REMARK  160  A    between atoms: _373  and  _374
REMARK  161  A    between atoms: _376  and  _378
REMARK  162  A    between atoms: _378  and  _379
REMARK  163  A    between atoms: _378  and  _381
REMARK  164  A    between atoms: _381  and  _382
REMARK  165  A    between atoms: _384  and  _386
REMARK  166  A    between atoms: _386  and  _387
REMARK  167  A    between atoms: _386  and  _389
REMARK  168  A    between atoms: _389  and  _390
REMARK  169  A    between atoms: _392  and  _394
REMARK  170  A    between atoms: _394  and  _395
REMARK  171  A    between atoms: _397  and  _399
REMARK  172  A    between atoms: _399  and  _400
REMARK  173  A    between atoms: _399  and  _402
REMARK  174  A    between atoms: _402  and  _403
REMARK  175  A    between atoms: _403  and  _404
REMARK  176  A    between atoms: _406  and  _408
REMARK  177  A    between atoms: _408  and  _409
REMARK  178  A    between atoms: _408  and  _411
REMARK  179  A    between atoms: _411  and  _412
REMARK  180  A    between atoms: _417  and  _418
REMARK  181  A    between atoms: _420  and  _422
REMARK  182  A    between atoms: _422  and  _423
REMARK  183  A    between atoms: _422  and  _425
REMARK  184  A    between atoms: _425  and  _426
REMARK  185  A    between atoms: _429  and  _431
REMARK  186  A    between atoms: _431  and  _432
REMARK  187  A    between atoms: _431  and  _434
REMARK  188  A    between atoms: _434  and  _435
REMARK  189  A    between atoms: _440  and  _441
REMARK  190  A    between atoms: _443  and  _445
REMARK  191  A    between atoms: _445  and  _446
REMARK  192  A    between atoms: _445  and  _448
REMARK  193  A    between atoms: _451  and  _453
REMARK  194  A    between atoms: _453  and  _454
REMARK  195  A    between atoms: _453  and  _456
REMARK  196  A    between atoms: _456  and  _457
REMARK  197  A    between atoms: _462  and  _464
REMARK  198  A    between atoms: _464  and  _465
REMARK  199  A    between atoms: _464  and  _467
REMARK  200  A    between atoms: _467  and  _468
REMARK  201  A    between atoms: _468  and  _469
REMARK  202  A    between atoms: _469  and  _470
REMARK  203  A    between atoms: _479  and  _481
REMARK  204  A    between atoms: _481  and  _482
REMARK  205  A    between atoms: _481  and  _484
REMARK  206  A    between atoms: _484  and  _485
REMARK  207  A    between atoms: _488  and  _490
REMARK  208  A    between atoms: _490  and  _491
REMARK  209  A    between atoms: _490  and  _493
REMARK  210  A    between atoms: _493  and  _494
REMARK  211  A    between atoms: _494  and  _495
REMARK  212  A    between atoms: _495  and  _496
REMARK  213  A    between atoms: _505  and  _507
REMARK  214  A    between atoms: _507  and  _508
REMARK  215  A    between atoms: _507  and  _510
REMARK  216  A    between atoms: _510  and  _511
REMARK  217  A    between atoms: _516  and  _518
REMARK  218  A    between atoms: _518  and  _519
REMARK  219  A    between atoms: _518  and  _521
REMARK  220  A    between atoms: _521  and  _522
REMARK  221  A    between atoms: _525  and  _527
REMARK  222  A    between atoms: _527  and  _528
REMARK  223  A    between atoms: _527  and  _530
REMARK  224  A    between atoms: _530  and  _531
REMARK  225  A    between atoms: _534  and  _536
REMARK  226  A    between atoms: _536  and  _537
REMARK  227  A    between atoms: _536  and  _539
REMARK  228  A    between atoms: _539  and  _540
REMARK  229  A    between atoms: _543  and  _545
REMARK  230  A    between atoms: _545  and  _546
REMARK  231  A    between atoms: _545  and  _548
REMARK  232  A    between atoms: _548  and  _549
REMARK  233  A    between atoms: _554  and  _556
REMARK  234  A    between atoms: _556  and  _557
REMARK  235  A    between atoms: _556  and  _559
REMARK  236  A    between atoms: _559  and  _560
REMARK  237  A    between atoms: _560  and  _561
REMARK  238  A    between atoms: _561  and  _562
REMARK  239  A    between atoms: _562  and  _563
REMARK  240  A    between atoms: _567  and  _569
REMARK  241  A    between atoms: _569  and  _570
REMARK  242  A    between atoms: _569  and  _572
REMARK  243  A    between atoms: _575  and  _577
REMARK  244  A    between atoms: _577  and  _578
REMARK  245  A    between atoms: _577  and  _580
REMARK  246  A    between atoms: _580  and  _581
REMARK  247  A    between atoms: _583  and  _585
REMARK  248  A    between atoms: _585  and  _586
REMARK  249  A    between atoms: _585  and  _588
REMARK  250  A    between atoms: _588  and  _589
REMARK  251  A    between atoms: _592  and  _594
REMARK  252  A    between atoms: _594  and  _595
REMARK  253  A    between atoms: _594  and  _597
REMARK  254  A    between atoms: _597  and  _598
REMARK                            x       y       z     vdW  Elec       q    Type
REMARK                         _______ _______ _______ _____ _____    ______ ____
ROOT
ATOM      1  CA  HIS A   3      -7.747   1.573 -20.185  0.00  0.00    +0.155 C 
ENDROOT
BRANCH   1   2
ATOM      2  C   HIS A   3      -7.413   1.180 -21.596  0.00  0.00    +0.241 C 
ATOM      3  O   HIS A   3      -6.245   0.874 -21.921  0.00  0.00    -0.273 OA
ATOM      4  N   ARG A   4      -8.454   1.137 -22.405  0.00  0.00    -0.297 N 
ATOM      5  H   ARG A   4      -9.381   1.381 -22.001  0.00  0.00    +0.150 HD
BRANCH   4   6
ATOM      6  CA  ARG A   4      -8.416   0.781 -23.800  0.00  0.00    +0.149 C 
BRANCH   6   7
ATOM      7  C   ARG A   4      -8.214  -0.686 -24.147  0.00  0.00    +0.241 C 
ATOM      8  N   ASP A   5      -7.838  -1.514 -23.186  0.00  0.00    -0.298 N 
ATOM      9  H   ASP A   5      -7.702  -1.154 -22.220  0.00  0.00    +0.150 HD
ATOM     10  O   ARG A   4      -8.404  -1.064 -25.272  0.00  0.00    -0.273 OA
BRANCH   8  11
ATOM     11  CA  ASP A   5      -7.611  -2.941 -23.473  0.00  0.00    +0.148 C 
BRANCH  11  12
ATOM     12  C   ASP A   5      -8.218  -3.805 -22.406  0.00  0.00    +0.227 C 
ATOM     13  O   ASP A   5      -7.631  -4.788 -22.014  0.00  0.00    -0.286 OA
ENDBRANCH  11  12
BRANCH  11  14
ATOM     14  CB  ASP A   5      -6.109  -3.251 -23.579  0.00  0.00    +0.142 C 
BRANCH  14  15
ATOM     15  CG  ASP A   5      -5.827  -4.570 -24.276  0.00  0.00    +0.367 C 
ATOM     16  OD2 ASP A   5      -4.741  -5.141 -24.040  0.00  0.00    -0.246 OA
ATOM     17  OD1 ASP A   5      -6.673  -5.037 -25.056  0.00  0.00    -0.246 OA
ENDBRANCH  14  15
ENDBRANCH  11  14
ENDBRANCH   8  11
ENDBRANCH   6   7
BRANCH   6  18
ATOM     18  CB  ARG A   4      -7.386   1.594 -24.505  0.00  0.00    +0.033 C 
BRANCH  18  19
ATOM     19  CG  ARG A   4      -7.617   3.056 -24.425  0.00  0.00    +0.045 C 
BRANCH  19  20
ATOM     20  CD  ARG A   4      -6.647   3.748 -25.333  0.00  0.00    +0.174 C 
BRANCH  20  21
ATOM     21  NE  ARG A   4      -6.765   5.169 -25.277  0.00  0.00    -0.265 N 
ATOM     22  HE  ARG A   4      -7.128   5.598 -24.402  0.00  0.00    +0.259 HD
ATOM     23  CZ  ARG A   4      -6.439   5.965 -26.272  0.00  0.00    +0.342 C 
ATOM     24  NH2 ARG A   4      -6.571   7.269 -26.146  0.00  0.00    -0.292 N 
ATOM     25 HH21 ARG A   4      -6.934   7.672 -25.258  0.00  0.00    +0.255 HD
ATOM     26 HH22 ARG A   4      -6.313   7.896 -26.934  0.00  0.00    +0.255 HD
ATOM     27  NH1 ARG A   4      -5.981   5.451 -27.392  0.00  0.00    -0.292 N 
ATOM     28 HH11 ARG A   4      -5.878   4.420 -27.487  0.00  0.00    +0.255 HD
ATOM     29 HH12 ARG A   4      -5.721   6.075 -28.183  0.00  0.00    +0.255 HD
ENDBRANCH  20  21
ENDBRANCH  19  20
ENDBRANCH  18  19
ENDBRANCH   6  18
ENDBRANCH   4   6
ENDBRANCH   1   2
BRANCH   1  31
ATOM     30  C   VAL A   2      -8.124   3.966 -20.398  0.00  0.00    +0.241 C 
ATOM     31  N   HIS A   3      -8.597   2.756 -20.108  0.00  0.00    -0.297 N 
ATOM     32  H   HIS A   3      -9.591   2.652 -19.821  0.00  0.00    +0.150 HD
ATOM     33  O   VAL A   2      -6.984   4.144 -20.866  0.00  0.00    -0.273 OA
BRANCH  30  34
ATOM     34  CA  VAL A   2      -9.044   5.144 -20.077  0.00  0.00    +0.148 C 
BRANCH  34  37
ATOM     35  C   TYR A   1      -8.531   6.115 -17.890  0.00  0.00    +0.239 C 
ATOM     36  O   TYR A   1      -9.508   5.582 -17.360  0.00  0.00    -0.274 OA
ATOM     37  N   VAL A   2      -8.293   6.046 -19.191  0.00  0.00    -0.297 N 
ATOM     38  H   VAL A   2      -7.551   6.649 -19.599  0.00  0.00    +0.150 HD
BRANCH  35  39
ATOM     39  CA  TYR A   1      -7.535   6.899 -17.039  0.00  0.00    +0.149 C 
BRANCH  39  40
ATOM     40  N   TYR A   1      -8.275   7.857 -16.284  0.00  0.00    -0.238 NA
ATOM     41  H   TYR A   1      -8.765   7.551 -15.419  0.00  0.00    +0.142 HD
ENDBRANCH  39  40
BRANCH  39  42
ATOM     42  CB  TYR A   1      -6.736   5.973 -16.087  0.00  0.00    +0.053 C 
BRANCH  42  43
ATOM     43  CG  TYR A   1      -5.849   5.055 -16.863  0.00  0.00    -0.020 A 
ATOM     44  CD2 TYR A   1      -6.163   3.702 -17.025  0.00  0.00    -0.001 A 
ATOM     45  CE2 TYR A   1      -5.327   2.845 -17.789  0.00  0.00    +0.036 A 
ATOM     46  CZ  TYR A   1      -4.209   3.378 -18.414  0.00  0.00    +0.134 A 
ATOM     47  CE1 TYR A   1      -3.903   4.721 -18.266  0.00  0.00    +0.036 A 
ATOM     48  CD1 TYR A   1      -4.723   5.546 -17.495  0.00  0.00    -0.001 A 
BRANCH  46  49
ATOM     49  OH  TYR A   1      -3.367   2.603 -19.183  0.00  0.00    -0.506 OA
ATOM     50  HH  TYR A   1      -2.634   3.166 -19.538  0.00  0.00    +0.292 HD
ENDBRANCH  46  49
ENDBRANCH  42  43
ENDBRANCH  39  42
ENDBRANCH  35  39
ENDBRANCH  34  37
BRANCH  34  51
ATOM     51  CB  VAL A   2      -9.514   5.853 -21.398  0.00  0.00    +0.027 C 
ATOM     52  CG2 VAL A   2     -10.439   7.018 -21.099  0.00  0.00    +0.002 C 
ATOM     53  CG1 VAL A   2     -10.236   4.940 -22.271  0.00  0.00    +0.002 C 
ENDBRANCH  34  51
ENDBRANCH  30  34
ENDBRANCH   1  31
BRANCH   1  54
ATOM     54  CB  HIS A   3      -8.441   0.422 -19.481  0.00  0.00    +0.076 C 
BRANCH  54  55
ATOM     55  CG  HIS A   3      -7.561  -0.781 -19.265  0.00  0.00    +0.082 A 
ATOM     56  CD2 HIS A   3      -6.980  -1.267 -18.138  0.00  0.00    +0.115 A 
ATOM     57  NE2 HIS A   3      -6.280  -2.408 -18.497  0.00  0.00    -0.221 NA
ATOM     58  CE1 HIS A   3      -6.438  -2.600 -19.806  0.00  0.00    +0.199 A 
ATOM     59  ND1 HIS A   3      -7.203  -1.627 -20.285  0.00  0.00    -0.227 NA
ENDBRANCH  54  55
ENDBRANCH   1  54
TORSDOF 22
REMARK  Name = ../refined-set-2016/4p5z/4p5z_pocket.pdb
REMARK  254 active torsions:
REMARK  status: ('A' for Active; 'I' for Inactive)
REMARK    1  A    between atoms: _1  and  _3
REMARK    2  A    between atoms: _3  and  _4
REMARK    3  A    between atoms: _3  and  _6
REMARK    4  A    between atoms: _9  and  _11
REMARK    5  A    between atoms: _11  and  _12
REMARK    6  A    between atoms: _11  and  _14
REMARK    7  A    between atoms: _17  and  _19
REMARK    8  A    between atoms: _19  and  _20
REMARK    9  A    between atoms: _22  and  _24
REMARK   10  A    between atoms: _24  and  _25
REMARK   11  A    between atoms: _28  and  _30
REMARK   12  A    between atoms: _30  and  _31
REMARK   13  A    between atoms: _33  and  _35
REMARK   14  A    between atoms: _35  and  _36
REMARK   15  A    between atoms: _35  and  _38
REMARK   16  A    between atoms: _38  and  _39
REMARK   17  A    between atoms: _39  and  _40
REMARK   18  A    between atoms: _43  and  _45
REMARK   19  A    between atoms: _45  and  _46
REMARK   20  A    between atoms: _48  and  _50
REMARK   21  A    between atoms: _50  and  _51
REMARK   22  A    between atoms: _50  and  _53
REMARK   23  A    between atoms: _53  and  _54
REMARK   24  A    between atoms: _54  and  _55
REMARK   25  A    between atoms: _58  and  _60
REMARK   26  A    between atoms: _60  and  _61
REMARK   27  A    between atoms: _60  and  _63
REMARK   28  A    between atoms: _66  and  _68
REMARK   29  A    between atoms: _68  and  _69
REMARK   30  A    between atoms: _68  and  _71
REMARK   31  A    between atoms: _73  and  _75
REMARK   32  A    between atoms: _75  and  _76
REMARK   33  A    between atoms: _75  and  _78
REMARK   34  A    between atoms: _78  and  _79
REMARK   35  A    between atoms: _81  and  _83
REMARK   36  A    between atoms: _83  and  _84
REMARK   37  A    between atoms: _86  and  _88
REMARK   38  A    between atoms: _88  and  _89
REMARK   39  A    between atoms: _88  and  _91
REMARK   40  A    between atoms: _91  and  _92
REMARK   41  A    between atoms: _94  and  _96
REMARK   42  A    between atoms: _96  and  _97
REMARK   43  A    between atoms: _96  and  _99
REMARK   44  A    between atoms: _102  and  _104
REMARK   45  A    between atoms: _104  and  _105
REMARK   46  A    between atoms: _108  and  _110
REMARK   47  A    between atoms: _110  and  _111
REMARK   48  A    between atoms: _110  and  _113
REMARK   49  A    between atoms: _113  and  _114
REMARK   50  A    between atoms: _117  and  _119
REMARK   51  A    between atoms: _119  and  _120
REMARK   52  A    between atoms: _119  and  _122
REMARK   53  A    between atoms: _122  and  _123
REMARK   54  A    between atoms: _123  and  _124
REMARK   55  A    between atoms: _124  and  _125
REMARK   56  A    between atoms: _125  and  _126
REMARK   57  A    between atoms: _130  and  _132
REMARK   58  A    between atoms: _132  and  _133
REMARK   59  A    between atoms: _132  and  _135
REMARK   60  A    between atoms: _135  and  _136
REMARK   61  A    between atoms: _139  and  _141
REMARK   62  A    between atoms: _141  and  _142
REMARK   63  A    between atoms: _141  and  _144
REMARK   64  A    between atoms: _144  and  _145
REMARK   65  A    between atoms: _148  and  _150
REMARK   66  A    between atoms: _150  and  _151
REMARK   67  A    between atoms: _150  and  _153
REMARK   68  A    between atoms: _153  and  _154
REMARK   69  A    between atoms: _160  and  _162
REMARK   70  A    between atoms: _162  and  _163
REMARK   71  A    between atoms: _165  and  _167
REMARK   72  A    between atoms: _167  and  _168
REMARK   73  A    between atoms: _167  and  _170
REMARK   74  A    between atoms: _170  and  _171
REMARK   75  A    between atoms: _171  and  _172
REMARK   76  A    between atoms: _175  and  _177
REMARK   77  A    between atoms: _177  and  _178
REMARK   78  A    between atoms: _181  and  _183
REMARK   79  A    between atoms: _183  and  _184
REMARK   80  A    between atoms: _183  and  _186
REMARK   81  A    between atoms: _186  and  _187
REMARK   82  A    between atoms: _189  and  _191
REMARK   83  A    between atoms: _191  and  _192
REMARK   84  A    between atoms: _191  and  _194
REMARK   85  A    between atoms: _194  and  _195
REMARK   86  A    between atoms: _198  and  _200
REMARK   87  A    between atoms: _200  and  _201
REMARK   88  A    between atoms: _200  and  _203
REMARK   89  A    between atoms: _203  and  _204
REMARK   90  A    between atoms: _204  and  _205
REMARK   91  A    between atoms: _207  and  _209
REMARK   92  A    between atoms: _209  and  _210
REMARK   93  A    between atoms: _212  and  _214
REMARK   94  A    between atoms: _214  and  _215
REMARK   95  A    between atoms: _214  and  _217
REMARK   96  A    between atoms: _217  and  _218
REMARK   97  A    between atoms: _218  and  _219
REMARK   98  A    between atoms: _224  and  _226
REMARK   99  A    between atoms: _226  and  _227
REMARK  100  A    between atoms: _226  and  _229
REMARK  101  A    between atoms: _229  and  _230
REMARK  102  A    between atoms: _236  and  _238
REMARK  103  A    between atoms: _238  and  _239
REMARK  104  A    between atoms: _238  and  _241
REMARK  105  A    between atoms: _241  and  _242
REMARK  106  A    between atoms: _247  and  _249
REMARK  107  A    between atoms: _249  and  _250
REMARK  108  A    between atoms: _249  and  _252
REMARK  109  A    between atoms: _252  and  _253
REMARK  110  A    between atoms: _256  and  _258
REMARK  111  A    between atoms: _258  and  _259
REMARK  112  A    between atoms: _258  and  _261
REMARK  113  A    between atoms: _261  and  _262
REMARK  114  A    between atoms: _265  and  _267
REMARK  115  A    between atoms: _267  and  _268
REMARK  116  A    between atoms: _267  and  _270
REMARK  117  A    between atoms: _270  and  _271
REMARK  118  A    between atoms: _271  and  _272
REMARK  119  A    between atoms: _272  and  _273
REMARK  120  A    between atoms: _282  and  _284
REMARK  121  A    between atoms: _284  and  _285
REMARK  122  A    between atoms: _284  and  _287
REMARK  123  A    between atoms: _287  and  _288
REMARK  124  A    between atoms: _291  and  _293
REMARK  125  A    between atoms: _293  and  _294
REMARK  126  A    between atoms: _293  and  _296
REMARK  127  A    between atoms: _296  and  _297
REMARK  128  A    between atoms: _300  and  _302
REMARK  129  A    between atoms: _302  and  _303
REMARK  130  A    between atoms: _302  and  _305
REMARK  131  A    between atoms: _308  and  _310
REMARK  132  A    between atoms: _310  and  _311
REMARK  133  A    between atoms: _310  and  _313
REMARK  134  A    between atoms: _313  and  _314
REMARK  135  A    between atoms: _317  and  _319
REMARK  136  A    between atoms: _319  and  _320
REMARK  137  A    between atoms: _319  and  _322
REMARK  138  A    between atoms: _322  and  _323
REMARK  139  A    between atoms: _323  and  _324
REMARK  140  A    between atoms: _327  and  _329
REMARK  141  A    between atoms: _329  and  _330
REMARK  142  A    between atoms: _329  and  _332
REMARK  143  A    between atoms: _332  and  _333
REMARK  144  A    between atoms: _338  and  _339
REMARK  145  A    between atoms: _341  and  _343
REMARK  146  A    between atoms: _343  and  _344
REMARK  147  A    between atoms: _343  and  _346
REMARK  148  A    between atoms: _346  and  _347
REMARK  149  A    between atoms: _347  and  _348
REMARK  150  A    between atoms: _350  and  _352
REMARK  151  A    between atoms: _352  and  _353
REMARK  152  A    between atoms: _352  and  _355
REMARK  153  A    between atoms: _355  and  _356
REMARK  154  A    between atoms: _356  and  _357
REMARK  155  A    between atoms: _360  and  _362
REMARK  156  A    between atoms: _362  and  _363
REMARK  157  A    between atoms: _362  and  _365
REMARK  158  A    between atoms: _365  and  _366
REMARK  159  A    between atoms: _371  and  _373
REMARK  160  A    between atoms: _373  and  _374
REMARK  161  A    between atoms: _376  and  _378
REMARK  162  A    between atoms: _378  and  _379
REMARK  163  A    between atoms: _378  and  _381
REMARK  164  A    between atoms: _381  and  _382
REMARK  165  A    between atoms: _384  and  _386
REMARK  166  A    between atoms: _386  and  _387
REMARK  167  A    between atoms: _386  and  _389
REMARK  168  A    between atoms: _389  and  _390
REMARK  169  A    between atoms: _392  and  _394
REMARK  170  A    between atoms: _394  and  _395
REMARK  171  A    between atoms: _397  and  _399
REMARK  172  A    between atoms: _399  and  _400
REMARK  173  A    between atoms: _399  and  _402
REMARK  174  A    between atoms: _402  and  _403
REMARK  175  A    between atoms: _403  and  _404
REMARK  176  A    between atoms: _406  and  _408
REMARK  177  A    between atoms: _408  and  _409
REMARK  178  A    between atoms: _408  and  _411
REMARK  179  A    between atoms: _411  and  _412
REMARK  180  A    between atoms: _417  and  _418
REMARK  181  A    between atoms: _420  and  _422
REMARK  182  A    between atoms: _422  and  _423
REMARK  183  A    between atoms: _422  and  _425
REMARK  184  A    between atoms: _425  and  _426
REMARK  185  A    between atoms: _429  and  _431
REMARK  186  A    between atoms: _431  and  _432
REMARK  187  A    between atoms: _431  and  _434
REMARK  188  A    between atoms: _434  and  _435
REMARK  189  A    between atoms: _440  and  _441
REMARK  190  A    between atoms: _443  and  _445
REMARK  191  A    between atoms: _445  and  _446
REMARK  192  A    between atoms: _445  and  _448
REMARK  193  A    between atoms: _451  and  _453
REMARK  194  A    between atoms: _453  and  _454
REMARK  195  A    between atoms: _453  and  _456
REMARK  196  A    between atoms: _456  and  _457
REMARK  197  A    between atoms: _462  and  _464
REMARK  198  A    between atoms: _464  and  _465
REMARK  199  A    between atoms: _464  and  _467
REMARK  200  A    between atoms: _467  and  _468
REMARK  201  A    between atoms: _468  and  _469
REMARK  202  A    between atoms: _469  and  _470
REMARK  203  A    between atoms: _479  and  _481
REMARK  204  A    between atoms: _481  and  _482
REMARK  205  A    between atoms: _481  and  _484
REMARK  206  A    between atoms: _484  and  _485
REMARK  207  A    between atoms: _488  and  _490
REMARK  208  A    between atoms: _490  and  _491
REMARK  209  A    between atoms: _490  and  _493
REMARK  210  A    between atoms: _493  and  _494
REMARK  211  A    between atoms: _494  and  _495
REMARK  212  A    between atoms: _495  and  _496
REMARK  213  A    between atoms: _505  and  _507
REMARK  214  A    between atoms: _507  and  _508
REMARK  215  A    between atoms: _507  and  _510
REMARK  216  A    between atoms: _510  and  _511
REMARK  217  A    between atoms: _516  and  _518
REMARK  218  A    between atoms: _518  and  _519
REMARK  219  A    between atoms: _518  and  _521
REMARK  220  A    between atoms: _521  and  _522
REMARK  221  A    between atoms: _525  and  _527
REMARK  222  A    between atoms: _527  and  _528
REMARK  223  A    between atoms: _527  and  _530
REMARK  224  A    between atoms: _530  and  _531
REMARK  225  A    between atoms: _534  and  _536
REMARK  226  A    between atoms: _536  and  _537
REMARK  227  A    between atoms: _536  and  _539
REMARK  228  A    between atoms: _539  and  _540
REMARK  229  A    between atoms: _543  and  _545
REMARK  230  A    between atoms: _545  and  _546
REMARK  231  A    between atoms: _545  and  _548
REMARK  232  A    between atoms: _548  and  _549
REMARK  233  A    between atoms: _554  and  _556
REMARK  234  A    between atoms: _556  and  _557
REMARK  235  A    between atoms: _556  and  _559
REMARK  236  A    between atoms: _559  and  _560
REMARK  237  A    between atoms: _560  and  _561
REMARK  238  A    between atoms: _561  and  _562
REMARK  239  A    between atoms: _562  and  _563
REMARK  240  A    between atoms: _567  and  _569
REMARK  241  A    between atoms: _569  and  _570
REMARK  242  A    between atoms: _569  and  _572
REMARK  243  A    between atoms: _575  and  _577
REMARK  244  A    between atoms: _577  and  _578
REMARK  245  A    between atoms: _577  and  _580
REMARK  246  A    between atoms: _580  and  _581
REMARK  247  A    between atoms: _583  and  _585
REMARK  248  A    between atoms: _585  and  _586
REMARK  249  A    between atoms: _585  and  _588
REMARK  250  A    between atoms: _588  and  _589
REMARK  251  A    between atoms: _592  and  _594
REMARK  252  A    between atoms: _594  and  _595
REMARK  253  A    between atoms: _594  and  _597
REMARK  254  A    between atoms: _597  and  _598
REMARK                            x       y       z     vdW  Elec       q    Type
REMARK                         _______ _______ _______ _____ _____    ______ ____
ROOT
ATOM      1  CA  ILE A   3      -7.712  -9.391 -15.479  0.00  0.00    +0.149 C 
ENDROOT
BRANCH   1   4
ATOM      2  C   ASN A   2      -6.437  -8.415 -17.296  0.00  0.00    +0.241 C 
ATOM      3  O   ASN A   2      -6.131  -7.428 -16.593  0.00  0.00    -0.273 OA
ATOM      4  N   ILE A   3      -7.227  -9.372 -16.850  0.00  0.00    -0.297 N 
ATOM      5  H   ILE A   3      -7.511 -10.135 -17.497  0.00  0.00    +0.150 HD
BRANCH   2   6
ATOM      6  CA  ASN A   2      -5.945  -8.570 -18.750  0.00  0.00    +0.158 C 
BRANCH   6   9
ATOM      7  C   ARG A   1      -6.175 -10.810 -19.696  0.00  0.00    +0.238 C 
ATOM      8  O   ARG A   1      -5.066 -11.118 -19.333  0.00  0.00    -0.274 OA
ATOM      9  N   ASN A   2      -6.682  -9.605 -19.480  0.00  0.00    -0.297 N 
ATOM     10  H   ASN A   2      -7.633  -9.387 -19.840  0.00  0.00    +0.150 HD
BRANCH   7  11
ATOM     11  CA  ARG A   1      -7.038 -11.831 -20.439  0.00  0.00    +0.145 C 
BRANCH  11  12
ATOM     12  N   ARG A   1      -8.442 -11.479 -20.494  0.00  0.00    -0.238 NA
ATOM     13  H   ARG A   1      -8.880 -11.252 -21.410  0.00  0.00    +0.142 HD
ENDBRANCH  11  12
BRANCH  11  14
ATOM     14  CB  ARG A   1      -6.482 -12.001 -21.836  0.00  0.00    +0.030 C 
BRANCH  14  15
ATOM     15  CG  ARG A   1      -6.496 -10.731 -22.656  0.00  0.00    +0.045 C 
BRANCH  15  16
ATOM     16  CD  ARG A   1      -6.020 -10.985 -24.082  0.00  0.00    +0.174 C 
BRANCH  16  17
ATOM     17  NE  ARG A   1      -6.028  -9.714 -24.800  0.00  0.00    -0.265 N 
ATOM     18  HE  ARG A   1      -5.125  -9.214 -24.929  0.00  0.00    +0.259 HD
ATOM     19  CZ  ARG A   1      -7.122  -9.169 -25.293  0.00  0.00    +0.342 C 
ATOM     20  NH2 ARG A   1      -8.258  -9.825 -25.168  0.00  0.00    -0.292 N 
ATOM     21 HH21 ARG A   1      -8.275 -10.748 -24.690  0.00  0.00    +0.255 HD
ATOM     22 HH22 ARG A   1      -9.137  -9.419 -25.547  0.00  0.00    +0.255 HD
ATOM     23  NH1 ARG A   1      -7.101  -7.985 -25.908  0.00  0.00    -0.292 N 
ATOM     24 HH11 ARG A   1      -6.205  -7.467 -26.008  0.00  0.00    +0.255 HD
ATOM     25 HH12 ARG A   1      -7.981  -7.580 -26.287  0.00  0.00    +0.255 HD
ENDBRANCH  16  17
ENDBRANCH  15  16
ENDBRANCH  14  15
ENDBRANCH  11  14
ENDBRANCH   7  11
ENDBRANCH   6   9
BRANCH   6  26
ATOM     26  CB  ASN A   2      -6.063  -7.267 -19.534  0.00  0.00    +0.114 C 
BRANCH  26  27
ATOM     27  CG  ASN A   2      -5.127  -7.229 -20.730  0.00  0.00    +0.222 C 
ATOM     28  OD1 ASN A   2      -4.074  -7.845 -20.712  0.00  0.00    -0.275 OA
ATOM     29  ND2 ASN A   2      -5.519  -6.535 -21.777  0.00  0.00    -0.329 N 
ATOM     30 HD21 ASN A   2      -6.424  -6.023 -21.753  0.00  0.00    +0.145 HD
ATOM     31 HD22 ASN A   2      -4.924  -6.498 -22.629  0.00  0.00    +0.145 HD
ENDBRANCH  26  27
ENDBRANCH   6  26
ENDBRANCH   2   6
ENDBRANCH   1   4
BRANCH   1  32
ATOM     32  C   ILE A   3      -7.019 -10.548 -14.828  0.00  0.00    +0.241 C 
ATOM     33  N   LEU A   4      -6.449 -10.286 -13.669  0.00  0.00    -0.297 N 
ATOM     34  H   LEU A   4      -6.471  -9.318 -13.290  0.00  0.00    +0.150 HD
ATOM     35  O   ILE A   3      -7.015 -11.668 -15.366  0.00  0.00    -0.273 OA
BRANCH  33  36
ATOM     36  CA  LEU A   4      -5.787 -11.346 -12.914  0.00  0.00    +0.149 C 
BRANCH  36  37
ATOM     37  C   LEU A   4      -6.632 -11.704 -11.709  0.00  0.00    +0.241 C 
ATOM     38  O   LEU A   4      -7.351 -10.849 -11.171  0.00  0.00    -0.273 OA
ATOM     39  N   ILE A   5      -6.533 -12.962 -11.274  0.00  0.00    -0.297 N 
ATOM     40  H   ILE A   5      -5.828 -13.593 -11.706  0.00  0.00    +0.150 HD
BRANCH  39  41
ATOM     41  CA  ILE A   5      -7.392 -13.478 -10.204  0.00  0.00    +0.149 C 
BRANCH  41  42
ATOM     42  C   ILE A   5      -6.507 -14.235  -9.189  0.00  0.00    +0.241 C 
ATOM     43  N   ASN A   6      -6.692 -13.956  -7.894  0.00  0.00    -0.298 N 
ATOM     44  H   ASN A   6      -7.479 -13.341  -7.606  0.00  0.00    +0.150 HD
ATOM     45  O   ILE A   5      -5.565 -14.950  -9.565  0.00  0.00    -0.273 OA
BRANCH  43  46
ATOM     46  CA  ASN A   6      -5.805 -14.504  -6.892  0.00  0.00    +0.146 C 
BRANCH  46  47
ATOM     47  C   ASN A   6      -6.480 -15.722  -6.239  0.00  0.00    +0.227 C 
ATOM     48  O   ASN A   6      -7.504 -16.239  -6.729  0.00  0.00    -0.286 OA
ENDBRANCH  46  47
BRANCH  46  49
ATOM     49  CB  ASN A   6      -5.378 -13.427  -5.872  0.00  0.00    +0.112 C 
BRANCH  49  50
ATOM     50  CG  ASN A   6      -6.464 -13.065  -4.919  0.00  0.00    +0.222 C 
ATOM     51  ND2 ASN A   6      -6.223 -12.037  -4.169  0.00  0.00    -0.329 N 
ATOM     52 HD21 ASN A   6      -6.934 -11.717  -3.481  0.00  0.00    +0.145 HD
ATOM     53 HD22 ASN A   6      -5.318 -11.532  -4.255  0.00  0.00    +0.145 HD
ATOM     54  OD1 ASN A   6      -7.523 -13.702  -4.858  0.00  0.00    -0.275 OA
ENDBRANCH  49  50
ENDBRANCH  46  49
ENDBRANCH  43  46
ENDBRANCH  41  42
BRANCH  41  55
ATOM     55  CB  ILE A   5      -8.523 -14.312 -10.838  0.00  0.00    +0.027 C 
ATOM     56  CG2 ILE A   5      -7.951 -15.345 -11.735  0.00  0.00    +0.002 C 
BRANCH  55  57
ATOM     57  CG1 ILE A   5      -9.459 -14.881  -9.770  0.00  0.00    +0.002 C 
ATOM     58  CD1 ILE A   5     -10.756 -15.408 -10.298  0.00  0.00    +0.000 C 
ENDBRANCH  55  57
ENDBRANCH  41  55
ENDBRANCH  39  41
ENDBRANCH  36  37
BRANCH  36  59
ATOM     59  CB  LEU A   4      -4.384 -10.895 -12.519  0.00  0.00    +0.029 C 
BRANCH  59  60
ATOM     60  CG  LEU A   4      -3.428 -10.651 -13.703  0.00  0.00    +0.002 C 
ATOM     61  CD2 LEU A   4      -2.122  -9.999 -13.210  0.00  0.00    +0.000 C 
ATOM     62  CD1 LEU A   4      -3.140 -11.942 -14.398  0.00  0.00    +0.000 C 
ENDBRANCH  59  60
ENDBRANCH  36  59
ENDBRANCH  33  36
ENDBRANCH   1  32
BRANCH   1  63
ATOM     63  CB  ILE A   3      -9.223  -9.562 -15.368  0.00  0.00    +0.027 C 
ATOM     64  CG2 ILE A   3      -9.643  -9.640 -13.899  0.00  0.00    +0.002 C 
BRANCH  63  65
ATOM     65  CG1 ILE A   3      -9.976  -8.447 -16.147  0.00  0.00    +0.002 C 
ATOM     66  CD1 ILE A   3      -9.765  -7.136 -15.572  0.00  0.00    +0.000 C 
ENDBRANCH  63  65
ENDBRANCH   1  63
TORSDOF 26
REMARK  Name = ../refined-set-2016/4p5z/4p5z_pocket.pdb
REMARK  254 active torsions:
REMARK  status: ('A' for Active; 'I' for Inactive)
REMARK    1  A    between atoms: _1  and  _3
REMARK    2  A    between atoms: _3  and  _4
REMARK    3  A    between atoms: _3  and  _6
REMARK    4  A    between atoms: _9  and  _11
REMARK    5  A    between atoms: _11  and  _12
REMARK    6  A    between atoms: _11  and  _14
REMARK    7  A    between atoms: _17  and  _19
REMARK    8  A    between atoms: _19  and  _20
REMARK    9  A    between atoms: _22  and  _24
REMARK   10  A    between atoms: _24  and  _25
REMARK   11  A    between atoms: _28  and  _30
REMARK   12  A    between atoms: _30  and  _31
REMARK   13  A    between atoms: _33  and  _35
REMARK   14  A    between atoms: _35  and  _36
REMARK   15  A    between atoms: _35  and  _38
REMARK   16  A    between atoms: _38  and  _39
REMARK   17  A    between atoms: _39  and  _40
REMARK   18  A    between atoms: _43  and  _45
REMARK   19  A    between atoms: _45  and  _46
REMARK   20  A    between atoms: _48  and  _50
REMARK   21  A    between atoms: _50  and  _51
REMARK   22  A    between atoms: _50  and  _53
REMARK   23  A    between atoms: _53  and  _54
REMARK   24  A    between atoms: _54  and  _55
REMARK   25  A    between atoms: _58  and  _60
REMARK   26  A    between atoms: _60  and  _61
REMARK   27  A    between atoms: _60  and  _63
REMARK   28  A    between atoms: _66  and  _68
REMARK   29  A    between atoms: _68  and  _69
REMARK   30  A    between atoms: _68  and  _71
REMARK   31  A    between atoms: _73  and  _75
REMARK   32  A    between atoms: _75  and  _76
REMARK   33  A    between atoms: _75  and  _78
REMARK   34  A    between atoms: _78  and  _79
REMARK   35  A    between atoms: _81  and  _83
REMARK   36  A    between atoms: _83  and  _84
REMARK   37  A    between atoms: _86  and  _88
REMARK   38  A    between atoms: _88  and  _89
REMARK   39  A    between atoms: _88  and  _91
REMARK   40  A    between atoms: _91  and  _92
REMARK   41  A    between atoms: _94  and  _96
REMARK   42  A    between atoms: _96  and  _97
REMARK   43  A    between atoms: _96  and  _99
REMARK   44  A    between atoms: _102  and  _104
REMARK   45  A    between atoms: _104  and  _105
REMARK   46  A    between atoms: _108  and  _110
REMARK   47  A    between atoms: _110  and  _111
REMARK   48  A    between atoms: _110  and  _113
REMARK   49  A    between atoms: _113  and  _114
REMARK   50  A    between atoms: _117  and  _119
REMARK   51  A    between atoms: _119  and  _120
REMARK   52  A    between atoms: _119  and  _122
REMARK   53  A    between atoms: _122  and  _123
REMARK   54  A    between atoms: _123  and  _124
REMARK   55  A    between atoms: _124  and  _125
REMARK   56  A    between atoms: _125  and  _126
REMARK   57  A    between atoms: _130  and  _132
REMARK   58  A    between atoms: _132  and  _133
REMARK   59  A    between atoms: _132  and  _135
REMARK   60  A    between atoms: _135  and  _136
REMARK   61  A    between atoms: _139  and  _141
REMARK   62  A    between atoms: _141  and  _142
REMARK   63  A    between atoms: _141  and  _144
REMARK   64  A    between atoms: _144  and  _145
REMARK   65  A    between atoms: _148  and  _150
REMARK   66  A    between atoms: _150  and  _151
REMARK   67  A    between atoms: _150  and  _153
REMARK   68  A    between atoms: _153  and  _154
REMARK   69  A    between atoms: _160  and  _162
REMARK   70  A    between atoms: _162  and  _163
REMARK   71  A    between atoms: _165  and  _167
REMARK   72  A    between atoms: _167  and  _168
REMARK   73  A    between atoms: _167  and  _170
REMARK   74  A    between atoms: _170  and  _171
REMARK   75  A    between atoms: _171  and  _172
REMARK   76  A    between atoms: _175  and  _177
REMARK   77  A    between atoms: _177  and  _178
REMARK   78  A    between atoms: _181  and  _183
REMARK   79  A    between atoms: _183  and  _184
REMARK   80  A    between atoms: _183  and  _186
REMARK   81  A    between atoms: _186  and  _187
REMARK   82  A    between atoms: _189  and  _191
REMARK   83  A    between atoms: _191  and  _192
REMARK   84  A    between atoms: _191  and  _194
REMARK   85  A    between atoms: _194  and  _195
REMARK   86  A    between atoms: _198  and  _200
REMARK   87  A    between atoms: _200  and  _201
REMARK   88  A    between atoms: _200  and  _203
REMARK   89  A    between atoms: _203  and  _204
REMARK   90  A    between atoms: _204  and  _205
REMARK   91  A    between atoms: _207  and  _209
REMARK   92  A    between atoms: _209  and  _210
REMARK   93  A    between atoms: _212  and  _214
REMARK   94  A    between atoms: _214  and  _215
REMARK   95  A    between atoms: _214  and  _217
REMARK   96  A    between atoms: _217  and  _218
REMARK   97  A    between atoms: _218  and  _219
REMARK   98  A    between atoms: _224  and  _226
REMARK   99  A    between atoms: _226  and  _227
REMARK  100  A    between atoms: _226  and  _229
REMARK  101  A    between atoms: _229  and  _230
REMARK  102  A    between atoms: _236  and  _238
REMARK  103  A    between atoms: _238  and  _239
REMARK  104  A    between atoms: _238  and  _241
REMARK  105  A    between atoms: _241  and  _242
REMARK  106  A    between atoms: _247  and  _249
REMARK  107  A    between atoms: _249  and  _250
REMARK  108  A    between atoms: _249  and  _252
REMARK  109  A    between atoms: _252  and  _253
REMARK  110  A    between atoms: _256  and  _258
REMARK  111  A    between atoms: _258  and  _259
REMARK  112  A    between atoms: _258  and  _261
REMARK  113  A    between atoms: _261  and  _262
REMARK  114  A    between atoms: _265  and  _267
REMARK  115  A    between atoms: _267  and  _268
REMARK  116  A    between atoms: _267  and  _270
REMARK  117  A    between atoms: _270  and  _271
REMARK  118  A    between atoms: _271  and  _272
REMARK  119  A    between atoms: _272  and  _273
REMARK  120  A    between atoms: _282  and  _284
REMARK  121  A    between atoms: _284  and  _285
REMARK  122  A    between atoms: _284  and  _287
REMARK  123  A    between atoms: _287  and  _288
REMARK  124  A    between atoms: _291  and  _293
REMARK  125  A    between atoms: _293  and  _294
REMARK  126  A    between atoms: _293  and  _296
REMARK  127  A    between atoms: _296  and  _297
REMARK  128  A    between atoms: _300  and  _302
REMARK  129  A    between atoms: _302  and  _303
REMARK  130  A    between atoms: _302  and  _305
REMARK  131  A    between atoms: _308  and  _310
REMARK  132  A    between atoms: _310  and  _311
REMARK  133  A    between atoms: _310  and  _313
REMARK  134  A    between atoms: _313  and  _314
REMARK  135  A    between atoms: _317  and  _319
REMARK  136  A    between atoms: _319  and  _320
REMARK  137  A    between atoms: _319  and  _322
REMARK  138  A    between atoms: _322  and  _323
REMARK  139  A    between atoms: _323  and  _324
REMARK  140  A    between atoms: _327  and  _329
REMARK  141  A    between atoms: _329  and  _330
REMARK  142  A    between atoms: _329  and  _332
REMARK  143  A    between atoms: _332  and  _333
REMARK  144  A    between atoms: _338  and  _339
REMARK  145  A    between atoms: _341  and  _343
REMARK  146  A    between atoms: _343  and  _344
REMARK  147  A    between atoms: _343  and  _346
REMARK  148  A    between atoms: _346  and  _347
REMARK  149  A    between atoms: _347  and  _348
REMARK  150  A    between atoms: _350  and  _352
REMARK  151  A    between atoms: _352  and  _353
REMARK  152  A    between atoms: _352  and  _355
REMARK  153  A    between atoms: _355  and  _356
REMARK  154  A    between atoms: _356  and  _357
REMARK  155  A    between atoms: _360  and  _362
REMARK  156  A    between atoms: _362  and  _363
REMARK  157  A    between atoms: _362  and  _365
REMARK  158  A    between atoms: _365  and  _366
REMARK  159  A    between atoms: _371  and  _373
REMARK  160  A    between atoms: _373  and  _374
REMARK  161  A    between atoms: _376  and  _378
REMARK  162  A    between atoms: _378  and  _379
REMARK  163  A    between atoms: _378  and  _381
REMARK  164  A    between atoms: _381  and  _382
REMARK  165  A    between atoms: _384  and  _386
REMARK  166  A    between atoms: _386  and  _387
REMARK  167  A    between atoms: _386  and  _389
REMARK  168  A    between atoms: _389  and  _390
REMARK  169  A    between atoms: _392  and  _394
REMARK  170  A    between atoms: _394  and  _395
REMARK  171  A    between atoms: _397  and  _399
REMARK  172  A    between atoms: _399  and  _400
REMARK  173  A    between atoms: _399  and  _402
REMARK  174  A    between atoms: _402  and  _403
REMARK  175  A    between atoms: _403  and  _404
REMARK  176  A    between atoms: _406  and  _408
REMARK  177  A    between atoms: _408  and  _409
REMARK  178  A    between atoms: _408  and  _411
REMARK  179  A    between atoms: _411  and  _412
REMARK  180  A    between atoms: _417  and  _418
REMARK  181  A    between atoms: _420  and  _422
REMARK  182  A    between atoms: _422  and  _423
REMARK  183  A    between atoms: _422  and  _425
REMARK  184  A    between atoms: _425  and  _426
REMARK  185  A    between atoms: _429  and  _431
REMARK  186  A    between atoms: _431  and  _432
REMARK  187  A    between atoms: _431  and  _434
REMARK  188  A    between atoms: _434  and  _435
REMARK  189  A    between atoms: _440  and  _441
REMARK  190  A    between atoms: _443  and  _445
REMARK  191  A    between atoms: _445  and  _446
REMARK  192  A    between atoms: _445  and  _448
REMARK  193  A    between atoms: _451  and  _453
REMARK  194  A    between atoms: _453  and  _454
REMARK  195  A    between atoms: _453  and  _456
REMARK  196  A    between atoms: _456  and  _457
REMARK  197  A    between atoms: _462  and  _464
REMARK  198  A    between atoms: _464  and  _465
REMARK  199  A    between atoms: _464  and  _467
REMARK  200  A    between atoms: _467  and  _468
REMARK  201  A    between atoms: _468  and  _469
REMARK  202  A    between atoms: _469  and  _470
REMARK  203  A    between atoms: _479  and  _481
REMARK  204  A    between atoms: _481  and  _482
REMARK  205  A    between atoms: _481  and  _484
REMARK  206  A    between atoms: _484  and  _485
REMARK  207  A    between atoms: _488  and  _490
REMARK  208  A    between atoms: _490  and  _491
REMARK  209  A    between atoms: _490  and  _493
REMARK  210  A    between atoms: _493  and  _494
REMARK  211  A    between atoms: _494  and  _495
REMARK  212  A    between atoms: _495  and  _496
REMARK  213  A    between atoms: _505  and  _507
REMARK  214  A    between atoms: _507  and  _508
REMARK  215  A    between atoms: _507  and  _510
REMARK  216  A    between atoms: _510  and  _511
REMARK  217  A    between atoms: _516  and  _518
REMARK  218  A    between atoms: _518  and  _519
REMARK  219  A    between atoms: _518  and  _521
REMARK  220  A    between atoms: _521  and  _522
REMARK  221  A    between atoms: _525  and  _527
REMARK  222  A    between atoms: _527  and  _528
REMARK  223  A    between atoms: _527  and  _530
REMARK  224  A    between atoms: _530  and  _531
REMARK  225  A    between atoms: _534  and  _536
REMARK  226  A    between atoms: _536  and  _537
REMARK  227  A    between atoms: _536  and  _539
REMARK  228  A    between atoms: _539  and  _540
REMARK  229  A    between atoms: _543  and  _545
REMARK  230  A    between atoms: _545  and  _546
REMARK  231  A    between atoms: _545  and  _548
REMARK  232  A    between atoms: _548  and  _549
REMARK  233  A    between atoms: _554  and  _556
REMARK  234  A    between atoms: _556  and  _557
REMARK  235  A    between atoms: _556  and  _559
REMARK  236  A    between atoms: _559  and  _560
REMARK  237  A    between atoms: _560  and  _561
REMARK  238  A    between atoms: _561  and  _562
REMARK  239  A    between atoms: _562  and  _563
REMARK  240  A    between atoms: _567  and  _569
REMARK  241  A    between atoms: _569  and  _570
REMARK  242  A    between atoms: _569  and  _572
REMARK  243  A    between atoms: _575  and  _577
REMARK  244  A    between atoms: _577  and  _578
REMARK  245  A    between atoms: _577  and  _580
REMARK  246  A    between atoms: _580  and  _581
REMARK  247  A    between atoms: _583  and  _585
REMARK  248  A    between atoms: _585  and  _586
REMARK  249  A    between atoms: _585  and  _588
REMARK  250  A    between atoms: _588  and  _589
REMARK  251  A    between atoms: _592  and  _594
REMARK  252  A    between atoms: _594  and  _595
REMARK  253  A    between atoms: _594  and  _597
REMARK  254  A    between atoms: _597  and  _598
REMARK                            x       y       z     vdW  Elec       q    Type
REMARK                         _______ _______ _______ _____ _____    ______ ____
ROOT
ATOM      1  CA  SER A   3      -4.082  -5.290 -15.177  0.00  0.00    +0.178 C 
ENDROOT
BRANCH   1   4
ATOM      2  C   VAL A   2      -5.908  -4.910 -13.577  0.00  0.00    +0.241 C 
ATOM      3  O   VAL A   2      -5.195  -4.423 -12.708  0.00  0.00    -0.273 OA
ATOM      4  N   SER A   3      -5.470  -5.241 -14.774  0.00  0.00    -0.295 N 
ATOM      5  H   SER A   3      -6.183  -5.488 -15.490  0.00  0.00    +0.150 HD
BRANCH   2   6
ATOM      6  CA  VAL A   2      -7.413  -5.035 -13.390  0.00  0.00    +0.148 C 
BRANCH   6   8
ATOM      7  C   LYS A   1      -7.455  -6.738 -11.744  0.00  0.00    +0.238 C 
ATOM      8  N   VAL A   2      -7.758  -5.497 -12.077  0.00  0.00    -0.297 N 
ATOM      9  H   VAL A   2      -8.237  -4.868 -11.401  0.00  0.00    +0.150 HD
ATOM     10  O   LYS A   1      -6.926  -7.532 -12.537  0.00  0.00    -0.274 OA
BRANCH   7  11
ATOM     11  CA  LYS A   1      -7.782  -7.126 -10.331  0.00  0.00    +0.145 C 
BRANCH  11  12
ATOM     12  N   LYS A   1      -8.493  -8.371 -10.333  0.00  0.00    -0.238 NA
ATOM     13  H   LYS A   1      -8.152  -9.128 -10.959  0.00  0.00    +0.142 HD
ENDBRANCH  11  12
BRANCH  11  14
ATOM     14  CB  LYS A   1      -6.506  -7.213  -9.524  0.00  0.00    +0.026 C 
BRANCH  14  15
ATOM     15  CG  LYS A   1      -6.760  -7.692  -8.114  0.00  0.00    -0.000 C 
BRANCH  15  16
ATOM     16  CD  LYS A   1      -5.715  -7.335  -7.171  0.00  0.00    -0.024 C 
BRANCH  16  17
ATOM     17  CE  LYS A   1      -6.102  -7.937  -5.822  0.00  0.00    -0.086 C 
BRANCH  17  18
ATOM     18  NZ  LYS A   1      -5.294  -7.390  -4.779  0.00  0.00    +0.380 N 
ATOM     19  HZ1 LYS A   1      -5.572  -7.811  -3.870  0.00  0.00    -0.089 HD
ATOM     20  HZ2 LYS A   1      -5.430  -6.360  -4.741  0.00  0.00    -0.089 HD
ATOM     21  HZ3 LYS A   1      -4.294  -7.602  -4.970  0.00  0.00    -0.089 HD
ENDBRANCH  17  18
ENDBRANCH  16  17
ENDBRANCH  15  16
ENDBRANCH  14  15
ENDBRANCH  11  14
ENDBRANCH   7  11
ENDBRANCH   6   8
BRANCH   6  22
ATOM     22  CB  VAL A   2      -8.057  -3.646 -13.700  0.00  0.00    +0.027 C 
ATOM     23  CG2 VAL A   2      -9.547  -3.703 -13.427  0.00  0.00    +0.002 C 
ATOM     24  CG1 VAL A   2      -7.856  -3.301 -15.160  0.00  0.00    +0.002 C 
ENDBRANCH   6  22
ENDBRANCH   2   6
ENDBRANCH   1   4
BRANCH   1  25
ATOM     25  C   SER A   3      -3.981  -4.742 -16.590  0.00  0.00    +0.243 C 
ATOM     26  N   ASP A   4      -2.793  -4.691 -17.166  0.00  0.00    -0.296 N 
ATOM     27  H   ASP A   4      -1.930  -4.818 -16.599  0.00  0.00    +0.150 HD
ATOM     28  O   SER A   3      -4.988  -4.438 -17.177  0.00  0.00    -0.273 OA
BRANCH  26  29
ATOM     29  CA  ASP A   4      -2.701  -4.456 -18.595  0.00  0.00    +0.160 C 
BRANCH  29  30
ATOM     30  C   ASP A   4      -1.392  -5.045 -19.099  0.00  0.00    +0.241 C 
ATOM     31  O   ASP A   4      -0.324  -4.626 -18.662  0.00  0.00    -0.273 OA
ATOM     32  N   PHE A   5      -1.457  -5.964 -20.039  0.00  0.00    -0.298 N 
ATOM     33  H   PHE A   5      -2.379  -6.245 -20.430  0.00  0.00    +0.150 HD
BRANCH  32  34
ATOM     34  CA  PHE A   5      -0.245  -6.581 -20.527  0.00  0.00    +0.141 C 
BRANCH  34  35
ATOM     35  C   PHE A   5       0.302  -5.863 -21.764  0.00  0.00    +0.227 C 
ATOM     36  O   PHE A   5      -0.359  -5.730 -22.793  0.00  0.00    -0.286 OA
ENDBRANCH  34  35
BRANCH  34  37
ATOM     37  CB  PHE A   5      -0.444  -8.057 -20.834  0.00  0.00    +0.054 C 
BRANCH  37  38
ATOM     38  CG  PHE A   5      -0.965  -8.878 -19.687  0.00  0.00    -0.020 A 
ATOM     39  CD2 PHE A   5      -1.295  -8.334 -18.474  0.00  0.00    -0.004 A 
ATOM     40  CE2 PHE A   5      -1.762  -9.115 -17.455  0.00  0.00    -0.000 A 
ATOM     41  CZ  PHE A   5      -1.925 -10.449 -17.633  0.00  0.00    -0.000 A 
ATOM     42  CE1 PHE A   5      -1.587 -11.011 -18.818  0.00  0.00    -0.000 A 
ATOM     43  CD1 PHE A   5      -1.119 -10.223 -19.841  0.00  0.00    -0.004 A 
ENDBRANCH  37  38
ENDBRANCH  34  37
ENDBRANCH  32  34
ENDBRANCH  29  30
BRANCH  29  44
ATOM     44  CB  ASP A   4      -2.798  -2.951 -18.925  0.00  0.00    +0.143 C 
BRANCH  44  45
ATOM     45  CG  ASP A   4      -2.908  -2.692 -20.425  0.00  0.00    +0.367 C 
ATOM     46  OD2 ASP A   4      -3.432  -1.606 -20.852  0.00  0.00    -0.246 OA
ATOM     47  OD1 ASP A   4      -2.480  -3.591 -21.185  0.00  0.00    -0.246 OA
ENDBRANCH  44  45
ENDBRANCH  29  44
ENDBRANCH  26  29
ENDBRANCH   1  25
BRANCH   1  48
ATOM     48  CB  SER A   3      -3.597  -6.728 -15.142  0.00  0.00    +0.166 C 
BRANCH  48  49
ATOM     49  OG  SER A   3      -2.203  -6.726 -15.079  0.00  0.00    -0.380 OA
ATOM     50  H   SER A   3      -1.838  -6.266 -15.876  0.00  0.00    +0.211 HD
ENDBRANCH  48  49
ENDBRANCH   1  48
TORSDOF 22
REMARK  Name = ../refined-set-2016/4p5z/4p5z_pocket.pdb
REMARK  254 active torsions:
REMARK  status: ('A' for Active; 'I' for Inactive)
REMARK    1  A    between atoms: _1  and  _3
REMARK    2  A    between atoms: _3  and  _4
REMARK    3  A    between atoms: _3  and  _6
REMARK    4  A    between atoms: _9  and  _11
REMARK    5  A    between atoms: _11  and  _12
REMARK    6  A    between atoms: _11  and  _14
REMARK    7  A    between atoms: _17  and  _19
REMARK    8  A    between atoms: _19  and  _20
REMARK    9  A    between atoms: _22  and  _24
REMARK   10  A    between atoms: _24  and  _25
REMARK   11  A    between atoms: _28  and  _30
REMARK   12  A    between atoms: _30  and  _31
REMARK   13  A    between atoms: _33  and  _35
REMARK   14  A    between atoms: _35  and  _36
REMARK   15  A    between atoms: _35  and  _38
REMARK   16  A    between atoms: _38  and  _39
REMARK   17  A    between atoms: _39  and  _40
REMARK   18  A    between atoms: _43  and  _45
REMARK   19  A    between atoms: _45  and  _46
REMARK   20  A    between atoms: _48  and  _50
REMARK   21  A    between atoms: _50  and  _51
REMARK   22  A    between atoms: _50  and  _53
REMARK   23  A    between atoms: _53  and  _54
REMARK   24  A    between atoms: _54  and  _55
REMARK   25  A    between atoms: _58  and  _60
REMARK   26  A    between atoms: _60  and  _61
REMARK   27  A    between atoms: _60  and  _63
REMARK   28  A    between atoms: _66  and  _68
REMARK   29  A    between atoms: _68  and  _69
REMARK   30  A    between atoms: _68  and  _71
REMARK   31  A    between atoms: _73  and  _75
REMARK   32  A    between atoms: _75  and  _76
REMARK   33  A    between atoms: _75  and  _78
REMARK   34  A    between atoms: _78  and  _79
REMARK   35  A    between atoms: _81  and  _83
REMARK   36  A    between atoms: _83  and  _84
REMARK   37  A    between atoms: _86  and  _88
REMARK   38  A    between atoms: _88  and  _89
REMARK   39  A    between atoms: _88  and  _91
REMARK   40  A    between atoms: _91  and  _92
REMARK   41  A    between atoms: _94  and  _96
REMARK   42  A    between atoms: _96  and  _97
REMARK   43  A    between atoms: _96  and  _99
REMARK   44  A    between atoms: _102  and  _104
REMARK   45  A    between atoms: _104  and  _105
REMARK   46  A    between atoms: _108  and  _110
REMARK   47  A    between atoms: _110  and  _111
REMARK   48  A    between atoms: _110  and  _113
REMARK   49  A    between atoms: _113  and  _114
REMARK   50  A    between atoms: _117  and  _119
REMARK   51  A    between atoms: _119  and  _120
REMARK   52  A    between atoms: _119  and  _122
REMARK   53  A    between atoms: _122  and  _123
REMARK   54  A    between atoms: _123  and  _124
REMARK   55  A    between atoms: _124  and  _125
REMARK   56  A    between atoms: _125  and  _126
REMARK   57  A    between atoms: _130  and  _132
REMARK   58  A    between atoms: _132  and  _133
REMARK   59  A    between atoms: _132  and  _135
REMARK   60  A    between atoms: _135  and  _136
REMARK   61  A    between atoms: _139  and  _141
REMARK   62  A    between atoms: _141  and  _142
REMARK   63  A    between atoms: _141  and  _144
REMARK   64  A    between atoms: _144  and  _145
REMARK   65  A    between atoms: _148  and  _150
REMARK   66  A    between atoms: _150  and  _151
REMARK   67  A    between atoms: _150  and  _153
REMARK   68  A    between atoms: _153  and  _154
REMARK   69  A    between atoms: _160  and  _162
REMARK   70  A    between atoms: _162  and  _163
REMARK   71  A    between atoms: _165  and  _167
REMARK   72  A    between atoms: _167  and  _168
REMARK   73  A    between atoms: _167  and  _170
REMARK   74  A    between atoms: _170  and  _171
REMARK   75  A    between atoms: _171  and  _172
REMARK   76  A    between atoms: _175  and  _177
REMARK   77  A    between atoms: _177  and  _178
REMARK   78  A    between atoms: _181  and  _183
REMARK   79  A    between atoms: _183  and  _184
REMARK   80  A    between atoms: _183  and  _186
REMARK   81  A    between atoms: _186  and  _187
REMARK   82  A    between atoms: _189  and  _191
REMARK   83  A    between atoms: _191  and  _192
REMARK   84  A    between atoms: _191  and  _194
REMARK   85  A    between atoms: _194  and  _195
REMARK   86  A    between atoms: _198  and  _200
REMARK   87  A    between atoms: _200  and  _201
REMARK   88  A    between atoms: _200  and  _203
REMARK   89  A    between atoms: _203  and  _204
REMARK   90  A    between atoms: _204  and  _205
REMARK   91  A    between atoms: _207  and  _209
REMARK   92  A    between atoms: _209  and  _210
REMARK   93  A    between atoms: _212  and  _214
REMARK   94  A    between atoms: _214  and  _215
REMARK   95  A    between atoms: _214  and  _217
REMARK   96  A    between atoms: _217  and  _218
REMARK   97  A    between atoms: _218  and  _219
REMARK   98  A    between atoms: _224  and  _226
REMARK   99  A    between atoms: _226  and  _227
REMARK  100  A    between atoms: _226  and  _229
REMARK  101  A    between atoms: _229  and  _230
REMARK  102  A    between atoms: _236  and  _238
REMARK  103  A    between atoms: _238  and  _239
REMARK  104  A    between atoms: _238  and  _241
REMARK  105  A    between atoms: _241  and  _242
REMARK  106  A    between atoms: _247  and  _249
REMARK  107  A    between atoms: _249  and  _250
REMARK  108  A    between atoms: _249  and  _252
REMARK  109  A    between atoms: _252  and  _253
REMARK  110  A    between atoms: _256  and  _258
REMARK  111  A    between atoms: _258  and  _259
REMARK  112  A    between atoms: _258  and  _261
REMARK  113  A    between atoms: _261  and  _262
REMARK  114  A    between atoms: _265  and  _267
REMARK  115  A    between atoms: _267  and  _268
REMARK  116  A    between atoms: _267  and  _270
REMARK  117  A    between atoms: _270  and  _271
REMARK  118  A    between atoms: _271  and  _272
REMARK  119  A    between atoms: _272  and  _273
REMARK  120  A    between atoms: _282  and  _284
REMARK  121  A    between atoms: _284  and  _285
REMARK  122  A    between atoms: _284  and  _287
REMARK  123  A    between atoms: _287  and  _288
REMARK  124  A    between atoms: _291  and  _293
REMARK  125  A    between atoms: _293  and  _294
REMARK  126  A    between atoms: _293  and  _296
REMARK  127  A    between atoms: _296  and  _297
REMARK  128  A    between atoms: _300  and  _302
REMARK  129  A    between atoms: _302  and  _303
REMARK  130  A    between atoms: _302  and  _305
REMARK  131  A    between atoms: _308  and  _310
REMARK  132  A    between atoms: _310  and  _311
REMARK  133  A    between atoms: _310  and  _313
REMARK  134  A    between atoms: _313  and  _314
REMARK  135  A    between atoms: _317  and  _319
REMARK  136  A    between atoms: _319  and  _320
REMARK  137  A    between atoms: _319  and  _322
REMARK  138  A    between atoms: _322  and  _323
REMARK  139  A    between atoms: _323  and  _324
REMARK  140  A    between atoms: _327  and  _329
REMARK  141  A    between atoms: _329  and  _330
REMARK  142  A    between atoms: _329  and  _332
REMARK  143  A    between atoms: _332  and  _333
REMARK  144  A    between atoms: _338  and  _339
REMARK  145  A    between atoms: _341  and  _343
REMARK  146  A    between atoms: _343  and  _344
REMARK  147  A    between atoms: _343  and  _346
REMARK  148  A    between atoms: _346  and  _347
REMARK  149  A    between atoms: _347  and  _348
REMARK  150  A    between atoms: _350  and  _352
REMARK  151  A    between atoms: _352  and  _353
REMARK  152  A    between atoms: _352  and  _355
REMARK  153  A    between atoms: _355  and  _356
REMARK  154  A    between atoms: _356  and  _357
REMARK  155  A    between atoms: _360  and  _362
REMARK  156  A    between atoms: _362  and  _363
REMARK  157  A    between atoms: _362  and  _365
REMARK  158  A    between atoms: _365  and  _366
REMARK  159  A    between atoms: _371  and  _373
REMARK  160  A    between atoms: _373  and  _374
REMARK  161  A    between atoms: _376  and  _378
REMARK  162  A    between atoms: _378  and  _379
REMARK  163  A    between atoms: _378  and  _381
REMARK  164  A    between atoms: _381  and  _382
REMARK  165  A    between atoms: _384  and  _386
REMARK  166  A    between atoms: _386  and  _387
REMARK  167  A    between atoms: _386  and  _389
REMARK  168  A    between atoms: _389  and  _390
REMARK  169  A    between atoms: _392  and  _394
REMARK  170  A    between atoms: _394  and  _395
REMARK  171  A    between atoms: _397  and  _399
REMARK  172  A    between atoms: _399  and  _400
REMARK  173  A    between atoms: _399  and  _402
REMARK  174  A    between atoms: _402  and  _403
REMARK  175  A    between atoms: _403  and  _404
REMARK  176  A    between atoms: _406  and  _408
REMARK  177  A    between atoms: _408  and  _409
REMARK  178  A    between atoms: _408  and  _411
REMARK  179  A    between atoms: _411  and  _412
REMARK  180  A    between atoms: _417  and  _418
REMARK  181  A    between atoms: _420  and  _422
REMARK  182  A    between atoms: _422  and  _423
REMARK  183  A    between atoms: _422  and  _425
REMARK  184  A    between atoms: _425  and  _426
REMARK  185  A    between atoms: _429  and  _431
REMARK  186  A    between atoms: _431  and  _432
REMARK  187  A    between atoms: _431  and  _434
REMARK  188  A    between atoms: _434  and  _435
REMARK  189  A    between atoms: _440  and  _441
REMARK  190  A    between atoms: _443  and  _445
REMARK  191  A    between atoms: _445  and  _446
REMARK  192  A    between atoms: _445  and  _448
REMARK  193  A    between atoms: _451  and  _453
REMARK  194  A    between atoms: _453  and  _454
REMARK  195  A    between atoms: _453  and  _456
REMARK  196  A    between atoms: _456  and  _457
REMARK  197  A    between atoms: _462  and  _464
REMARK  198  A    between atoms: _464  and  _465
REMARK  199  A    between atoms: _464  and  _467
REMARK  200  A    between atoms: _467  and  _468
REMARK  201  A    between atoms: _468  and  _469
REMARK  202  A    between atoms: _469  and  _470
REMARK  203  A    between atoms: _479  and  _481
REMARK  204  A    between atoms: _481  and  _482
REMARK  205  A    between atoms: _481  and  _484
REMARK  206  A    between atoms: _484  and  _485
REMARK  207  A    between atoms: _488  and  _490
REMARK  208  A    between atoms: _490  and  _491
REMARK  209  A    between atoms: _490  and  _493
REMARK  210  A    between atoms: _493  and  _494
REMARK  211  A    between atoms: _494  and  _495
REMARK  212  A    between atoms: _495  and  _496
REMARK  213  A    between atoms: _505  and  _507
REMARK  214  A    between atoms: _507  and  _508
REMARK  215  A    between atoms: _507  and  _510
REMARK  216  A    between atoms: _510  and  _511
REMARK  217  A    between atoms: _516  and  _518
REMARK  218  A    between atoms: _518  and  _519
REMARK  219  A    between atoms: _518  and  _521
REMARK  220  A    between atoms: _521  and  _522
REMARK  221  A    between atoms: _525  and  _527
REMARK  222  A    between atoms: _527  and  _528
REMARK  223  A    between atoms: _527  and  _530
REMARK  224  A    between atoms: _530  and  _531
REMARK  225  A    between atoms: _534  and  _536
REMARK  226  A    between atoms: _536  and  _537
REMARK  227  A    between atoms: _536  and  _539
REMARK  228  A    between atoms: _539  and  _540
REMARK  229  A    between atoms: _543  and  _545
REMARK  230  A    between atoms: _545  and  _546
REMARK  231  A    between atoms: _545  and  _548
REMARK  232  A    between atoms: _548  and  _549
REMARK  233  A    between atoms: _554  and  _556
REMARK  234  A    between atoms: _556  and  _557
REMARK  235  A    between atoms: _556  and  _559
REMARK  236  A    between atoms: _559  and  _560
REMARK  237  A    between atoms: _560  and  _561
REMARK  238  A    between atoms: _561  and  _562
REMARK  239  A    between atoms: _562  and  _563
REMARK  240  A    between atoms: _567  and  _569
REMARK  241  A    between atoms: _569  and  _570
REMARK  242  A    between atoms: _569  and  _572
REMARK  243  A    between atoms: _575  and  _577
REMARK  244  A    between atoms: _577  and  _578
REMARK  245  A    between atoms: _577  and  _580
REMARK  246  A    between atoms: _580  and  _581
REMARK  247  A    between atoms: _583  and  _585
REMARK  248  A    between atoms: _585  and  _586
REMARK  249  A    between atoms: _585  and  _588
REMARK  250  A    between atoms: _588  and  _589
REMARK  251  A    between atoms: _592  and  _594
REMARK  252  A    between atoms: _594  and  _595
REMARK  253  A    between atoms: _594  and  _597
REMARK  254  A    between atoms: _597  and  _598
REMARK                            x       y       z     vdW  Elec       q    Type
REMARK                         _______ _______ _______ _____ _____    ______ ____
ROOT
ATOM      1  O   HOH     1      -3.430  -1.104  -6.680  0.00  0.00    +0.000 OA
ENDROOT
TORSDOF 0
REMARK  Name = ../refined-set-2016/4p5z/4p5z_pocket.pdb
REMARK  254 active torsions:
REMARK  status: ('A' for Active; 'I' for Inactive)
REMARK    1  A    between atoms: _1  and  _3
REMARK    2  A    between atoms: _3  and  _4
REMARK    3  A    between atoms: _3  and  _6
REMARK    4  A    between atoms: _9  and  _11
REMARK    5  A    between atoms: _11  and  _12
REMARK    6  A    between atoms: _11  and  _14
REMARK    7  A    between atoms: _17  and  _19
REMARK    8  A    between atoms: _19  and  _20
REMARK    9  A    between atoms: _22  and  _24
REMARK   10  A    between atoms: _24  and  _25
REMARK   11  A    between atoms: _28  and  _30
REMARK   12  A    between atoms: _30  and  _31
REMARK   13  A    between atoms: _33  and  _35
REMARK   14  A    between atoms: _35  and  _36
REMARK   15  A    between atoms: _35  and  _38
REMARK   16  A    between atoms: _38  and  _39
REMARK   17  A    between atoms: _39  and  _40
REMARK   18  A    between atoms: _43  and  _45
REMARK   19  A    between atoms: _45  and  _46
REMARK   20  A    between atoms: _48  and  _50
REMARK   21  A    between atoms: _50  and  _51
REMARK   22  A    between atoms: _50  and  _53
REMARK   23  A    between atoms: _53  and  _54
REMARK   24  A    between atoms: _54  and  _55
REMARK   25  A    between atoms: _58  and  _60
REMARK   26  A    between atoms: _60  and  _61
REMARK   27  A    between atoms: _60  and  _63
REMARK   28  A    between atoms: _66  and  _68
REMARK   29  A    between atoms: _68  and  _69
REMARK   30  A    between atoms: _68  and  _71
REMARK   31  A    between atoms: _73  and  _75
REMARK   32  A    between atoms: _75  and  _76
REMARK   33  A    between atoms: _75  and  _78
REMARK   34  A    between atoms: _78  and  _79
REMARK   35  A    between atoms: _81  and  _83
REMARK   36  A    between atoms: _83  and  _84
REMARK   37  A    between atoms: _86  and  _88
REMARK   38  A    between atoms: _88  and  _89
REMARK   39  A    between atoms: _88  and  _91
REMARK   40  A    between atoms: _91  and  _92
REMARK   41  A    between atoms: _94  and  _96
REMARK   42  A    between atoms: _96  and  _97
REMARK   43  A    between atoms: _96  and  _99
REMARK   44  A    between atoms: _102  and  _104
REMARK   45  A    between atoms: _104  and  _105
REMARK   46  A    between atoms: _108  and  _110
REMARK   47  A    between atoms: _110  and  _111
REMARK   48  A    between atoms: _110  and  _113
REMARK   49  A    between atoms: _113  and  _114
REMARK   50  A    between atoms: _117  and  _119
REMARK   51  A    between atoms: _119  and  _120
REMARK   52  A    between atoms: _119  and  _122
REMARK   53  A    between atoms: _122  and  _123
REMARK   54  A    between atoms: _123  and  _124
REMARK   55  A    between atoms: _124  and  _125
REMARK   56  A    between atoms: _125  and  _126
REMARK   57  A    between atoms: _130  and  _132
REMARK   58  A    between atoms: _132  and  _133
REMARK   59  A    between atoms: _132  and  _135
REMARK   60  A    between atoms: _135  and  _136
REMARK   61  A    between atoms: _139  and  _141
REMARK   62  A    between atoms: _141  and  _142
REMARK   63  A    between atoms: _141  and  _144
REMARK   64  A    between atoms: _144  and  _145
REMARK   65  A    between atoms: _148  and  _150
REMARK   66  A    between atoms: _150  and  _151
REMARK   67  A    between atoms: _150  and  _153
REMARK   68  A    between atoms: _153  and  _154
REMARK   69  A    between atoms: _160  and  _162
REMARK   70  A    between atoms: _162  and  _163
REMARK   71  A    between atoms: _165  and  _167
REMARK   72  A    between atoms: _167  and  _168
REMARK   73  A    between atoms: _167  and  _170
REMARK   74  A    between atoms: _170  and  _171
REMARK   75  A    between atoms: _171  and  _172
REMARK   76  A    between atoms: _175  and  _177
REMARK   77  A    between atoms: _177  and  _178
REMARK   78  A    between atoms: _181  and  _183
REMARK   79  A    between atoms: _183  and  _184
REMARK   80  A    between atoms: _183  and  _186
REMARK   81  A    between atoms: _186  and  _187
REMARK   82  A    between atoms: _189  and  _191
REMARK   83  A    between atoms: _191  and  _192
REMARK   84  A    between atoms: _191  and  _194
REMARK   85  A    between atoms: _194  and  _195
REMARK   86  A    between atoms: _198  and  _200
REMARK   87  A    between atoms: _200  and  _201
REMARK   88  A    between atoms: _200  and  _203
REMARK   89  A    between atoms: _203  and  _204
REMARK   90  A    between atoms: _204  and  _205
REMARK   91  A    between atoms: _207  and  _209
REMARK   92  A    between atoms: _209  and  _210
REMARK   93  A    between atoms: _212  and  _214
REMARK   94  A    between atoms: _214  and  _215
REMARK   95  A    between atoms: _214  and  _217
REMARK   96  A    between atoms: _217  and  _218
REMARK   97  A    between atoms: _218  and  _219
REMARK   98  A    between atoms: _224  and  _226
REMARK   99  A    between atoms: _226  and  _227
REMARK  100  A    between atoms: _226  and  _229
REMARK  101  A    between atoms: _229  and  _230
REMARK  102  A    between atoms: _236  and  _238
REMARK  103  A    between atoms: _238  and  _239
REMARK  104  A    between atoms: _238  and  _241
REMARK  105  A    between atoms: _241  and  _242
REMARK  106  A    between atoms: _247  and  _249
REMARK  107  A    between atoms: _249  and  _250
REMARK  108  A    between atoms: _249  and  _252
REMARK  109  A    between atoms: _252  and  _253
REMARK  110  A    between atoms: _256  and  _258
REMARK  111  A    between atoms: _258  and  _259
REMARK  112  A    between atoms: _258  and  _261
REMARK  113  A    between atoms: _261  and  _262
REMARK  114  A    between atoms: _265  and  _267
REMARK  115  A    between atoms: _267  and  _268
REMARK  116  A    between atoms: _267  and  _270
REMARK  117  A    between atoms: _270  and  _271
REMARK  118  A    between atoms: _271  and  _272
REMARK  119  A    between atoms: _272  and  _273
REMARK  120  A    between atoms: _282  and  _284
REMARK  121  A    between atoms: _284  and  _285
REMARK  122  A    between atoms: _284  and  _287
REMARK  123  A    between atoms: _287  and  _288
REMARK  124  A    between atoms: _291  and  _293
REMARK  125  A    between atoms: _293  and  _294
REMARK  126  A    between atoms: _293  and  _296
REMARK  127  A    between atoms: _296  and  _297
REMARK  128  A    between atoms: _300  and  _302
REMARK  129  A    between atoms: _302  and  _303
REMARK  130  A    between atoms: _302  and  _305
REMARK  131  A    between atoms: _308  and  _310
REMARK  132  A    between atoms: _310  and  _311
REMARK  133  A    between atoms: _310  and  _313
REMARK  134  A    between atoms: _313  and  _314
REMARK  135  A    between atoms: _317  and  _319
REMARK  136  A    between atoms: _319  and  _320
REMARK  137  A    between atoms: _319  and  _322
REMARK  138  A    between atoms: _322  and  _323
REMARK  139  A    between atoms: _323  and  _324
REMARK  140  A    between atoms: _327  and  _329
REMARK  141  A    between atoms: _329  and  _330
REMARK  142  A    between atoms: _329  and  _332
REMARK  143  A    between atoms: _332  and  _333
REMARK  144  A    between atoms: _338  and  _339
REMARK  145  A    between atoms: _341  and  _343
REMARK  146  A    between atoms: _343  and  _344
REMARK  147  A    between atoms: _343  and  _346
REMARK  148  A    between atoms: _346  and  _347
REMARK  149  A    between atoms: _347  and  _348
REMARK  150  A    between atoms: _350  and  _352
REMARK  151  A    between atoms: _352  and  _353
REMARK  152  A    between atoms: _352  and  _355
REMARK  153  A    between atoms: _355  and  _356
REMARK  154  A    between atoms: _356  and  _357
REMARK  155  A    between atoms: _360  and  _362
REMARK  156  A    between atoms: _362  and  _363
REMARK  157  A    between atoms: _362  and  _365
REMARK  158  A    between atoms: _365  and  _366
REMARK  159  A    between atoms: _371  and  _373
REMARK  160  A    between atoms: _373  and  _374
REMARK  161  A    between atoms: _376  and  _378
REMARK  162  A    between atoms: _378  and  _379
REMARK  163  A    between atoms: _378  and  _381
REMARK  164  A    between atoms: _381  and  _382
REMARK  165  A    between atoms: _384  and  _386
REMARK  166  A    between atoms: _386  and  _387
REMARK  167  A    between atoms: _386  and  _389
REMARK  168  A    between atoms: _389  and  _390
REMARK  169  A    between atoms: _392  and  _394
REMARK  170  A    between atoms: _394  and  _395
REMARK  171  A    between atoms: _397  and  _399
REMARK  172  A    between atoms: _399  and  _400
REMARK  173  A    between atoms: _399  and  _402
REMARK  174  A    between atoms: _402  and  _403
REMARK  175  A    between atoms: _403  and  _404
REMARK  176  A    between atoms: _406  and  _408
REMARK  177  A    between atoms: _408  and  _409
REMARK  178  A    between atoms: _408  and  _411
REMARK  179  A    between atoms: _411  and  _412
REMARK  180  A    between atoms: _417  and  _418
REMARK  181  A    between atoms: _420  and  _422
REMARK  182  A    between atoms: _422  and  _423
REMARK  183  A    between atoms: _422  and  _425
REMARK  184  A    between atoms: _425  and  _426
REMARK  185  A    between atoms: _429  and  _431
REMARK  186  A    between atoms: _431  and  _432
REMARK  187  A    between atoms: _431  and  _434
REMARK  188  A    between atoms: _434  and  _435
REMARK  189  A    between atoms: _440  and  _441
REMARK  190  A    between atoms: _443  and  _445
REMARK  191  A    between atoms: _445  and  _446
REMARK  192  A    between atoms: _445  and  _448
REMARK  193  A    between atoms: _451  and  _453
REMARK  194  A    between atoms: _453  and  _454
REMARK  195  A    between atoms: _453  and  _456
REMARK  196  A    between atoms: _456  and  _457
REMARK  197  A    between atoms: _462  and  _464
REMARK  198  A    between atoms: _464  and  _465
REMARK  199  A    between atoms: _464  and  _467
REMARK  200  A    between atoms: _467  and  _468
REMARK  201  A    between atoms: _468  and  _469
REMARK  202  A    between atoms: _469  and  _470
REMARK  203  A    between atoms: _479  and  _481
REMARK  204  A    between atoms: _481  and  _482
REMARK  205  A    between atoms: _481  and  _484
REMARK  206  A    between atoms: _484  and  _485
REMARK  207  A    between atoms: _488  and  _490
REMARK  208  A    between atoms: _490  and  _491
REMARK  209  A    between atoms: _490  and  _493
REMARK  210  A    between atoms: _493  and  _494
REMARK  211  A    between atoms: _494  and  _495
REMARK  212  A    between atoms: _495  and  _496
REMARK  213  A    between atoms: _505  and  _507
REMARK  214  A    between atoms: _507  and  _508
REMARK  215  A    between atoms: _507  and  _510
REMARK  216  A    between atoms: _510  and  _511
REMARK  217  A    between atoms: _516  and  _518
REMARK  218  A    between atoms: _518  and  _519
REMARK  219  A    between atoms: _518  and  _521
REMARK  220  A    between atoms: _521  and  _522
REMARK  221  A    between atoms: _525  and  _527
REMARK  222  A    between atoms: _527  and  _528
REMARK  223  A    between atoms: _527  and  _530
REMARK  224  A    between atoms: _530  and  _531
REMARK  225  A    between atoms: _534  and  _536
REMARK  226  A    between atoms: _536  and  _537
REMARK  227  A    between atoms: _536  and  _539
REMARK  228  A    between atoms: _539  and  _540
REMARK  229  A    between atoms: _543  and  _545
REMARK  230  A    between atoms: _545  and  _546
REMARK  231  A    between atoms: _545  and  _548
REMARK  232  A    between atoms: _548  and  _549
REMARK  233  A    between atoms: _554  and  _556
REMARK  234  A    between atoms: _556  and  _557
REMARK  235  A    between atoms: _556  and  _559
REMARK  236  A    between atoms: _559  and  _560
REMARK  237  A    between atoms: _560  and  _561
REMARK  238  A    between atoms: _561  and  _562
REMARK  239  A    between atoms: _562  and  _563
REMARK  240  A    between atoms: _567  and  _569
REMARK  241  A    between atoms: _569  and  _570
REMARK  242  A    between atoms: _569  and  _572
REMARK  243  A    between atoms: _575  and  _577
REMARK  244  A    between atoms: _577  and  _578
REMARK  245  A    between atoms: _577  and  _580
REMARK  246  A    between atoms: _580  and  _581
REMARK  247  A    between atoms: _583  and  _585
REMARK  248  A    between atoms: _585  and  _586
REMARK  249  A    between atoms: _585  and  _588
REMARK  250  A    between atoms: _588  and  _589
REMARK  251  A    between atoms: _592  and  _594
REMARK  252  A    between atoms: _594  and  _595
REMARK  253  A    between atoms: _594  and  _597
REMARK  254  A    between atoms: _597  and  _598
REMARK                            x       y       z     vdW  Elec       q    Type
REMARK                         _______ _______ _______ _____ _____    ______ ____
ROOT
ATOM      1  O   HOH     1      -2.735 -15.277  -5.142  0.00  0.00    +0.000 OA
ENDROOT
TORSDOF 0
REMARK  Name = ../refined-set-2016/4p5z/4p5z_pocket.pdb
REMARK  254 active torsions:
REMARK  status: ('A' for Active; 'I' for Inactive)
REMARK    1  A    between atoms: _1  and  _3
REMARK    2  A    between atoms: _3  and  _4
REMARK    3  A    between atoms: _3  and  _6
REMARK    4  A    between atoms: _9  and  _11
REMARK    5  A    between atoms: _11  and  _12
REMARK    6  A    between atoms: _11  and  _14
REMARK    7  A    between atoms: _17  and  _19
REMARK    8  A    between atoms: _19  and  _20
REMARK    9  A    between atoms: _22  and  _24
REMARK   10  A    between atoms: _24  and  _25
REMARK   11  A    between atoms: _28  and  _30
REMARK   12  A    between atoms: _30  and  _31
REMARK   13  A    between atoms: _33  and  _35
REMARK   14  A    between atoms: _35  and  _36
REMARK   15  A    between atoms: _35  and  _38
REMARK   16  A    between atoms: _38  and  _39
REMARK   17  A    between atoms: _39  and  _40
REMARK   18  A    between atoms: _43  and  _45
REMARK   19  A    between atoms: _45  and  _46
REMARK   20  A    between atoms: _48  and  _50
REMARK   21  A    between atoms: _50  and  _51
REMARK   22  A    between atoms: _50  and  _53
REMARK   23  A    between atoms: _53  and  _54
REMARK   24  A    between atoms: _54  and  _55
REMARK   25  A    between atoms: _58  and  _60
REMARK   26  A    between atoms: _60  and  _61
REMARK   27  A    between atoms: _60  and  _63
REMARK   28  A    between atoms: _66  and  _68
REMARK   29  A    between atoms: _68  and  _69
REMARK   30  A    between atoms: _68  and  _71
REMARK   31  A    between atoms: _73  and  _75
REMARK   32  A    between atoms: _75  and  _76
REMARK   33  A    between atoms: _75  and  _78
REMARK   34  A    between atoms: _78  and  _79
REMARK   35  A    between atoms: _81  and  _83
REMARK   36  A    between atoms: _83  and  _84
REMARK   37  A    between atoms: _86  and  _88
REMARK   38  A    between atoms: _88  and  _89
REMARK   39  A    between atoms: _88  and  _91
REMARK   40  A    between atoms: _91  and  _92
REMARK   41  A    between atoms: _94  and  _96
REMARK   42  A    between atoms: _96  and  _97
REMARK   43  A    between atoms: _96  and  _99
REMARK   44  A    between atoms: _102  and  _104
REMARK   45  A    between atoms: _104  and  _105
REMARK   46  A    between atoms: _108  and  _110
REMARK   47  A    between atoms: _110  and  _111
REMARK   48  A    between atoms: _110  and  _113
REMARK   49  A    between atoms: _113  and  _114
REMARK   50  A    between atoms: _117  and  _119
REMARK   51  A    between atoms: _119  and  _120
REMARK   52  A    between atoms: _119  and  _122
REMARK   53  A    between atoms: _122  and  _123
REMARK   54  A    between atoms: _123  and  _124
REMARK   55  A    between atoms: _124  and  _125
REMARK   56  A    between atoms: _125  and  _126
REMARK   57  A    between atoms: _130  and  _132
REMARK   58  A    between atoms: _132  and  _133
REMARK   59  A    between atoms: _132  and  _135
REMARK   60  A    between atoms: _135  and  _136
REMARK   61  A    between atoms: _139  and  _141
REMARK   62  A    between atoms: _141  and  _142
REMARK   63  A    between atoms: _141  and  _144
REMARK   64  A    between atoms: _144  and  _145
REMARK   65  A    between atoms: _148  and  _150
REMARK   66  A    between atoms: _150  and  _151
REMARK   67  A    between atoms: _150  and  _153
REMARK   68  A    between atoms: _153  and  _154
REMARK   69  A    between atoms: _160  and  _162
REMARK   70  A    between atoms: _162  and  _163
REMARK   71  A    between atoms: _165  and  _167
REMARK   72  A    between atoms: _167  and  _168
REMARK   73  A    between atoms: _167  and  _170
REMARK   74  A    between atoms: _170  and  _171
REMARK   75  A    between atoms: _171  and  _172
REMARK   76  A    between atoms: _175  and  _177
REMARK   77  A    between atoms: _177  and  _178
REMARK   78  A    between atoms: _181  and  _183
REMARK   79  A    between atoms: _183  and  _184
REMARK   80  A    between atoms: _183  and  _186
REMARK   81  A    between atoms: _186  and  _187
REMARK   82  A    between atoms: _189  and  _191
REMARK   83  A    between atoms: _191  and  _192
REMARK   84  A    between atoms: _191  and  _194
REMARK   85  A    between atoms: _194  and  _195
REMARK   86  A    between atoms: _198  and  _200
REMARK   87  A    between atoms: _200  and  _201
REMARK   88  A    between atoms: _200  and  _203
REMARK   89  A    between atoms: _203  and  _204
REMARK   90  A    between atoms: _204  and  _205
REMARK   91  A    between atoms: _207  and  _209
REMARK   92  A    between atoms: _209  and  _210
REMARK   93  A    between atoms: _212  and  _214
REMARK   94  A    between atoms: _214  and  _215
REMARK   95  A    between atoms: _214  and  _217
REMARK   96  A    between atoms: _217  and  _218
REMARK   97  A    between atoms: _218  and  _219
REMARK   98  A    between atoms: _224  and  _226
REMARK   99  A    between atoms: _226  and  _227
REMARK  100  A    between atoms: _226  and  _229
REMARK  101  A    between atoms: _229  and  _230
REMARK  102  A    between atoms: _236  and  _238
REMARK  103  A    between atoms: _238  and  _239
REMARK  104  A    between atoms: _238  and  _241
REMARK  105  A    between atoms: _241  and  _242
REMARK  106  A    between atoms: _247  and  _249
REMARK  107  A    between atoms: _249  and  _250
REMARK  108  A    between atoms: _249  and  _252
REMARK  109  A    between atoms: _252  and  _253
REMARK  110  A    between atoms: _256  and  _258
REMARK  111  A    between atoms: _258  and  _259
REMARK  112  A    between atoms: _258  and  _261
REMARK  113  A    between atoms: _261  and  _262
REMARK  114  A    between atoms: _265  and  _267
REMARK  115  A    between atoms: _267  and  _268
REMARK  116  A    between atoms: _267  and  _270
REMARK  117  A    between atoms: _270  and  _271
REMARK  118  A    between atoms: _271  and  _272
REMARK  119  A    between atoms: _272  and  _273
REMARK  120  A    between atoms: _282  and  _284
REMARK  121  A    between atoms: _284  and  _285
REMARK  122  A    between atoms: _284  and  _287
REMARK  123  A    between atoms: _287  and  _288
REMARK  124  A    between atoms: _291  and  _293
REMARK  125  A    between atoms: _293  and  _294
REMARK  126  A    between atoms: _293  and  _296
REMARK  127  A    between atoms: _296  and  _297
REMARK  128  A    between atoms: _300  and  _302
REMARK  129  A    between atoms: _302  and  _303
REMARK  130  A    between atoms: _302  and  _305
REMARK  131  A    between atoms: _308  and  _310
REMARK  132  A    between atoms: _310  and  _311
REMARK  133  A    between atoms: _310  and  _313
REMARK  134  A    between atoms: _313  and  _314
REMARK  135  A    between atoms: _317  and  _319
REMARK  136  A    between atoms: _319  and  _320
REMARK  137  A    between atoms: _319  and  _322
REMARK  138  A    between atoms: _322  and  _323
REMARK  139  A    between atoms: _323  and  _324
REMARK  140  A    between atoms: _327  and  _329
REMARK  141  A    between atoms: _329  and  _330
REMARK  142  A    between atoms: _329  and  _332
REMARK  143  A    between atoms: _332  and  _333
REMARK  144  A    between atoms: _338  and  _339
REMARK  145  A    between atoms: _341  and  _343
REMARK  146  A    between atoms: _343  and  _344
REMARK  147  A    between atoms: _343  and  _346
REMARK  148  A    between atoms: _346  and  _347
REMARK  149  A    between atoms: _347  and  _348
REMARK  150  A    between atoms: _350  and  _352
REMARK  151  A    between atoms: _352  and  _353
REMARK  152  A    between atoms: _352  and  _355
REMARK  153  A    between atoms: _355  and  _356
REMARK  154  A    between atoms: _356  and  _357
REMARK  155  A    between atoms: _360  and  _362
REMARK  156  A    between atoms: _362  and  _363
REMARK  157  A    between atoms: _362  and  _365
REMARK  158  A    between atoms: _365  and  _366
REMARK  159  A    between atoms: _371  and  _373
REMARK  160  A    between atoms: _373  and  _374
REMARK  161  A    between atoms: _376  and  _378
REMARK  162  A    between atoms: _378  and  _379
REMARK  163  A    between atoms: _378  and  _381
REMARK  164  A    between atoms: _381  and  _382
REMARK  165  A    between atoms: _384  and  _386
REMARK  166  A    between atoms: _386  and  _387
REMARK  167  A    between atoms: _386  and  _389
REMARK  168  A    between atoms: _389  and  _390
REMARK  169  A    between atoms: _392  and  _394
REMARK  170  A    between atoms: _394  and  _395
REMARK  171  A    between atoms: _397  and  _399
REMARK  172  A    between atoms: _399  and  _400
REMARK  173  A    between atoms: _399  and  _402
REMARK  174  A    between atoms: _402  and  _403
REMARK  175  A    between atoms: _403  and  _404
REMARK  176  A    between atoms: _406  and  _408
REMARK  177  A    between atoms: _408  and  _409
REMARK  178  A    between atoms: _408  and  _411
REMARK  179  A    between atoms: _411  and  _412
REMARK  180  A    between atoms: _417  and  _418
REMARK  181  A    between atoms: _420  and  _422
REMARK  182  A    between atoms: _422  and  _423
REMARK  183  A    between atoms: _422  and  _425
REMARK  184  A    between atoms: _425  and  _426
REMARK  185  A    between atoms: _429  and  _431
REMARK  186  A    between atoms: _431  and  _432
REMARK  187  A    between atoms: _431  and  _434
REMARK  188  A    between atoms: _434  and  _435
REMARK  189  A    between atoms: _440  and  _441
REMARK  190  A    between atoms: _443  and  _445
REMARK  191  A    between atoms: _445  and  _446
REMARK  192  A    between atoms: _445  and  _448
REMARK  193  A    between atoms: _451  and  _453
REMARK  194  A    between atoms: _453  and  _454
REMARK  195  A    between atoms: _453  and  _456
REMARK  196  A    between atoms: _456  and  _457
REMARK  197  A    between atoms: _462  and  _464
REMARK  198  A    between atoms: _464  and  _465
REMARK  199  A    between atoms: _464  and  _467
REMARK  200  A    between atoms: _467  and  _468
REMARK  201  A    between atoms: _468  and  _469
REMARK  202  A    between atoms: _469  and  _470
REMARK  203  A    between atoms: _479  and  _481
REMARK  204  A    between atoms: _481  and  _482
REMARK  205  A    between atoms: _481  and  _484
REMARK  206  A    between atoms: _484  and  _485
REMARK  207  A    between atoms: _488  and  _490
REMARK  208  A    between atoms: _490  and  _491
REMARK  209  A    between atoms: _490  and  _493
REMARK  210  A    between atoms: _493  and  _494
REMARK  211  A    between atoms: _494  and  _495
REMARK  212  A    between atoms: _495  and  _496
REMARK  213  A    between atoms: _505  and  _507
REMARK  214  A    between atoms: _507  and  _508
REMARK  215  A    between atoms: _507  and  _510
REMARK  216  A    between atoms: _510  and  _511
REMARK  217  A    between atoms: _516  and  _518
REMARK  218  A    between atoms: _518  and  _519
REMARK  219  A    between atoms: _518  and  _521
REMARK  220  A    between atoms: _521  and  _522
REMARK  221  A    between atoms: _525  and  _527
REMARK  222  A    between atoms: _527  and  _528
REMARK  223  A    between atoms: _527  and  _530
REMARK  224  A    between atoms: _530  and  _531
REMARK  225  A    between atoms: _534  and  _536
REMARK  226  A    between atoms: _536  and  _537
REMARK  227  A    between atoms: _536  and  _539
REMARK  228  A    between atoms: _539  and  _540
REMARK  229  A    between atoms: _543  and  _545
REMARK  230  A    between atoms: _545  and  _546
REMARK  231  A    between atoms: _545  and  _548
REMARK  232  A    between atoms: _548  and  _549
REMARK  233  A    between atoms: _554  and  _556
REMARK  234  A    between atoms: _556  and  _557
REMARK  235  A    between atoms: _556  and  _559
REMARK  236  A    between atoms: _559  and  _560
REMARK  237  A    between atoms: _560  and  _561
REMARK  238  A    between atoms: _561  and  _562
REMARK  239  A    between atoms: _562  and  _563
REMARK  240  A    between atoms: _567  and  _569
REMARK  241  A    between atoms: _569  and  _570
REMARK  242  A    between atoms: _569  and  _572
REMARK  243  A    between atoms: _575  and  _577
REMARK  244  A    between atoms: _577  and  _578
REMARK  245  A    between atoms: _577  and  _580
REMARK  246  A    between atoms: _580  and  _581
REMARK  247  A    between atoms: _583  and  _585
REMARK  248  A    between atoms: _585  and  _586
REMARK  249  A    between atoms: _585  and  _588
REMARK  250  A    between atoms: _588  and  _589
REMARK  251  A    between atoms: _592  and  _594
REMARK  252  A    between atoms: _594  and  _595
REMARK  253  A    between atoms: _594  and  _597
REMARK  254  A    between atoms: _597  and  _598
REMARK                            x       y       z     vdW  Elec       q    Type
REMARK                         _______ _______ _______ _____ _____    ______ ____
ROOT
ATOM      1  O   HOH     1       1.584 -10.122  -3.267  0.00  0.00    +0.000 OA
ENDROOT
TORSDOF 0
REMARK  Name = ../refined-set-2016/4p5z/4p5z_pocket.pdb
REMARK  254 active torsions:
REMARK  status: ('A' for Active; 'I' for Inactive)
REMARK    1  A    between atoms: _1  and  _3
REMARK    2  A    between atoms: _3  and  _4
REMARK    3  A    between atoms: _3  and  _6
REMARK    4  A    between atoms: _9  and  _11
REMARK    5  A    between atoms: _11  and  _12
REMARK    6  A    between atoms: _11  and  _14
REMARK    7  A    between atoms: _17  and  _19
REMARK    8  A    between atoms: _19  and  _20
REMARK    9  A    between atoms: _22  and  _24
REMARK   10  A    between atoms: _24  and  _25
REMARK   11  A    between atoms: _28  and  _30
REMARK   12  A    between atoms: _30  and  _31
REMARK   13  A    between atoms: _33  and  _35
REMARK   14  A    between atoms: _35  and  _36
REMARK   15  A    between atoms: _35  and  _38
REMARK   16  A    between atoms: _38  and  _39
REMARK   17  A    between atoms: _39  and  _40
REMARK   18  A    between atoms: _43  and  _45
REMARK   19  A    between atoms: _45  and  _46
REMARK   20  A    between atoms: _48  and  _50
REMARK   21  A    between atoms: _50  and  _51
REMARK   22  A    between atoms: _50  and  _53
REMARK   23  A    between atoms: _53  and  _54
REMARK   24  A    between atoms: _54  and  _55
REMARK   25  A    between atoms: _58  and  _60
REMARK   26  A    between atoms: _60  and  _61
REMARK   27  A    between atoms: _60  and  _63
REMARK   28  A    between atoms: _66  and  _68
REMARK   29  A    between atoms: _68  and  _69
REMARK   30  A    between atoms: _68  and  _71
REMARK   31  A    between atoms: _73  and  _75
REMARK   32  A    between atoms: _75  and  _76
REMARK   33  A    between atoms: _75  and  _78
REMARK   34  A    between atoms: _78  and  _79
REMARK   35  A    between atoms: _81  and  _83
REMARK   36  A    between atoms: _83  and  _84
REMARK   37  A    between atoms: _86  and  _88
REMARK   38  A    between atoms: _88  and  _89
REMARK   39  A    between atoms: _88  and  _91
REMARK   40  A    between atoms: _91  and  _92
REMARK   41  A    between atoms: _94  and  _96
REMARK   42  A    between atoms: _96  and  _97
REMARK   43  A    between atoms: _96  and  _99
REMARK   44  A    between atoms: _102  and  _104
REMARK   45  A    between atoms: _104  and  _105
REMARK   46  A    between atoms: _108  and  _110
REMARK   47  A    between atoms: _110  and  _111
REMARK   48  A    between atoms: _110  and  _113
REMARK   49  A    between atoms: _113  and  _114
REMARK   50  A    between atoms: _117  and  _119
REMARK   51  A    between atoms: _119  and  _120
REMARK   52  A    between atoms: _119  and  _122
REMARK   53  A    between atoms: _122  and  _123
REMARK   54  A    between atoms: _123  and  _124
REMARK   55  A    between atoms: _124  and  _125
REMARK   56  A    between atoms: _125  and  _126
REMARK   57  A    between atoms: _130  and  _132
REMARK   58  A    between atoms: _132  and  _133
REMARK   59  A    between atoms: _132  and  _135
REMARK   60  A    between atoms: _135  and  _136
REMARK   61  A    between atoms: _139  and  _141
REMARK   62  A    between atoms: _141  and  _142
REMARK   63  A    between atoms: _141  and  _144
REMARK   64  A    between atoms: _144  and  _145
REMARK   65  A    between atoms: _148  and  _150
REMARK   66  A    between atoms: _150  and  _151
REMARK   67  A    between atoms: _150  and  _153
REMARK   68  A    between atoms: _153  and  _154
REMARK   69  A    between atoms: _160  and  _162
REMARK   70  A    between atoms: _162  and  _163
REMARK   71  A    between atoms: _165  and  _167
REMARK   72  A    between atoms: _167  and  _168
REMARK   73  A    between atoms: _167  and  _170
REMARK   74  A    between atoms: _170  and  _171
REMARK   75  A    between atoms: _171  and  _172
REMARK   76  A    between atoms: _175  and  _177
REMARK   77  A    between atoms: _177  and  _178
REMARK   78  A    between atoms: _181  and  _183
REMARK   79  A    between atoms: _183  and  _184
REMARK   80  A    between atoms: _183  and  _186
REMARK   81  A    between atoms: _186  and  _187
REMARK   82  A    between atoms: _189  and  _191
REMARK   83  A    between atoms: _191  and  _192
REMARK   84  A    between atoms: _191  and  _194
REMARK   85  A    between atoms: _194  and  _195
REMARK   86  A    between atoms: _198  and  _200
REMARK   87  A    between atoms: _200  and  _201
REMARK   88  A    between atoms: _200  and  _203
REMARK   89  A    between atoms: _203  and  _204
REMARK   90  A    between atoms: _204  and  _205
REMARK   91  A    between atoms: _207  and  _209
REMARK   92  A    between atoms: _209  and  _210
REMARK   93  A    between atoms: _212  and  _214
REMARK   94  A    between atoms: _214  and  _215
REMARK   95  A    between atoms: _214  and  _217
REMARK   96  A    between atoms: _217  and  _218
REMARK   97  A    between atoms: _218  and  _219
REMARK   98  A    between atoms: _224  and  _226
REMARK   99  A    between atoms: _226  and  _227
REMARK  100  A    between atoms: _226  and  _229
REMARK  101  A    between atoms: _229  and  _230
REMARK  102  A    between atoms: _236  and  _238
REMARK  103  A    between atoms: _238  and  _239
REMARK  104  A    between atoms: _238  and  _241
REMARK  105  A    between atoms: _241  and  _242
REMARK  106  A    between atoms: _247  and  _249
REMARK  107  A    between atoms: _249  and  _250
REMARK  108  A    between atoms: _249  and  _252
REMARK  109  A    between atoms: _252  and  _253
REMARK  110  A    between atoms: _256  and  _258
REMARK  111  A    between atoms: _258  and  _259
REMARK  112  A    between atoms: _258  and  _261
REMARK  113  A    between atoms: _261  and  _262
REMARK  114  A    between atoms: _265  and  _267
REMARK  115  A    between atoms: _267  and  _268
REMARK  116  A    between atoms: _267  and  _270
REMARK  117  A    between atoms: _270  and  _271
REMARK  118  A    between atoms: _271  and  _272
REMARK  119  A    between atoms: _272  and  _273
REMARK  120  A    between atoms: _282  and  _284
REMARK  121  A    between atoms: _284  and  _285
REMARK  122  A    between atoms: _284  and  _287
REMARK  123  A    between atoms: _287  and  _288
REMARK  124  A    between atoms: _291  and  _293
REMARK  125  A    between atoms: _293  and  _294
REMARK  126  A    between atoms: _293  and  _296
REMARK  127  A    between atoms: _296  and  _297
REMARK  128  A    between atoms: _300  and  _302
REMARK  129  A    between atoms: _302  and  _303
REMARK  130  A    between atoms: _302  and  _305
REMARK  131  A    between atoms: _308  and  _310
REMARK  132  A    between atoms: _310  and  _311
REMARK  133  A    between atoms: _310  and  _313
REMARK  134  A    between atoms: _313  and  _314
REMARK  135  A    between atoms: _317  and  _319
REMARK  136  A    between atoms: _319  and  _320
REMARK  137  A    between atoms: _319  and  _322
REMARK  138  A    between atoms: _322  and  _323
REMARK  139  A    between atoms: _323  and  _324
REMARK  140  A    between atoms: _327  and  _329
REMARK  141  A    between atoms: _329  and  _330
REMARK  142  A    between atoms: _329  and  _332
REMARK  143  A    between atoms: _332  and  _333
REMARK  144  A    between atoms: _338  and  _339
REMARK  145  A    between atoms: _341  and  _343
REMARK  146  A    between atoms: _343  and  _344
REMARK  147  A    between atoms: _343  and  _346
REMARK  148  A    between atoms: _346  and  _347
REMARK  149  A    between atoms: _347  and  _348
REMARK  150  A    between atoms: _350  and  _352
REMARK  151  A    between atoms: _352  and  _353
REMARK  152  A    between atoms: _352  and  _355
REMARK  153  A    between atoms: _355  and  _356
REMARK  154  A    between atoms: _356  and  _357
REMARK  155  A    between atoms: _360  and  _362
REMARK  156  A    between atoms: _362  and  _363
REMARK  157  A    between atoms: _362  and  _365
REMARK  158  A    between atoms: _365  and  _366
REMARK  159  A    between atoms: _371  and  _373
REMARK  160  A    between atoms: _373  and  _374
REMARK  161  A    between atoms: _376  and  _378
REMARK  162  A    between atoms: _378  and  _379
REMARK  163  A    between atoms: _378  and  _381
REMARK  164  A    between atoms: _381  and  _382
REMARK  165  A    between atoms: _384  and  _386
REMARK  166  A    between atoms: _386  and  _387
REMARK  167  A    between atoms: _386  and  _389
REMARK  168  A    between atoms: _389  and  _390
REMARK  169  A    between atoms: _392  and  _394
REMARK  170  A    between atoms: _394  and  _395
REMARK  171  A    between atoms: _397  and  _399
REMARK  172  A    between atoms: _399  and  _400
REMARK  173  A    between atoms: _399  and  _402
REMARK  174  A    between atoms: _402  and  _403
REMARK  175  A    between atoms: _403  and  _404
REMARK  176  A    between atoms: _406  and  _408
REMARK  177  A    between atoms: _408  and  _409
REMARK  178  A    between atoms: _408  and  _411
REMARK  179  A    between atoms: _411  and  _412
REMARK  180  A    between atoms: _417  and  _418
REMARK  181  A    between atoms: _420  and  _422
REMARK  182  A    between atoms: _422  and  _423
REMARK  183  A    between atoms: _422  and  _425
REMARK  184  A    between atoms: _425  and  _426
REMARK  185  A    between atoms: _429  and  _431
REMARK  186  A    between atoms: _431  and  _432
REMARK  187  A    between atoms: _431  and  _434
REMARK  188  A    between atoms: _434  and  _435
REMARK  189  A    between atoms: _440  and  _441
REMARK  190  A    between atoms: _443  and  _445
REMARK  191  A    between atoms: _445  and  _446
REMARK  192  A    between atoms: _445  and  _448
REMARK  193  A    between atoms: _451  and  _453
REMARK  194  A    between atoms: _453  and  _454
REMARK  195  A    between atoms: _453  and  _456
REMARK  196  A    between atoms: _456  and  _457
REMARK  197  A    between atoms: _462  and  _464
REMARK  198  A    between atoms: _464  and  _465
REMARK  199  A    between atoms: _464  and  _467
REMARK  200  A    between atoms: _467  and  _468
REMARK  201  A    between atoms: _468  and  _469
REMARK  202  A    between atoms: _469  and  _470
REMARK  203  A    between atoms: _479  and  _481
REMARK  204  A    between atoms: _481  and  _482
REMARK  205  A    between atoms: _481  and  _484
REMARK  206  A    between atoms: _484  and  _485
REMARK  207  A    between atoms: _488  and  _490
REMARK  208  A    between atoms: _490  and  _491
REMARK  209  A    between atoms: _490  and  _493
REMARK  210  A    between atoms: _493  and  _494
REMARK  211  A    between atoms: _494  and  _495
REMARK  212  A    between atoms: _495  and  _496
REMARK  213  A    between atoms: _505  and  _507
REMARK  214  A    between atoms: _507  and  _508
REMARK  215  A    between atoms: _507  and  _510
REMARK  216  A    between atoms: _510  and  _511
REMARK  217  A    between atoms: _516  and  _518
REMARK  218  A    between atoms: _518  and  _519
REMARK  219  A    between atoms: _518  and  _521
REMARK  220  A    between atoms: _521  and  _522
REMARK  221  A    between atoms: _525  and  _527
REMARK  222  A    between atoms: _527  and  _528
REMARK  223  A    between atoms: _527  and  _530
REMARK  224  A    between atoms: _530  and  _531
REMARK  225  A    between atoms: _534  and  _536
REMARK  226  A    between atoms: _536  and  _537
REMARK  227  A    between atoms: _536  and  _539
REMARK  228  A    between atoms: _539  and  _540
REMARK  229  A    between atoms: _543  and  _545
REMARK  230  A    between atoms: _545  and  _546
REMARK  231  A    between atoms: _545  and  _548
REMARK  232  A    between atoms: _548  and  _549
REMARK  233  A    between atoms: _554  and  _556
REMARK  234  A    between atoms: _556  and  _557
REMARK  235  A    between atoms: _556  and  _559
REMARK  236  A    between atoms: _559  and  _560
REMARK  237  A    between atoms: _560  and  _561
REMARK  238  A    between atoms: _561  and  _562
REMARK  239  A    between atoms: _562  and  _563
REMARK  240  A    between atoms: _567  and  _569
REMARK  241  A    between atoms: _569  and  _570
REMARK  242  A    between atoms: _569  and  _572
REMARK  243  A    between atoms: _575  and  _577
REMARK  244  A    between atoms: _577  and  _578
REMARK  245  A    between atoms: _577  and  _580
REMARK  246  A    between atoms: _580  and  _581
REMARK  247  A    between atoms: _583  and  _585
REMARK  248  A    between atoms: _585  and  _586
REMARK  249  A    between atoms: _585  and  _588
REMARK  250  A    between atoms: _588  and  _589
REMARK  251  A    between atoms: _592  and  _594
REMARK  252  A    between atoms: _594  and  _595
REMARK  253  A    between atoms: _594  and  _597
REMARK  254  A    between atoms: _597  and  _598
REMARK                            x       y       z     vdW  Elec       q    Type
REMARK                         _______ _______ _______ _____ _____    ______ ____
ROOT
ATOM      1  O   HOH     1      -1.230  -0.228  -8.706  0.00  0.00    +0.000 OA
ENDROOT
TORSDOF 0
REMARK  Name = ../refined-set-2016/4p5z/4p5z_pocket.pdb
REMARK  254 active torsions:
REMARK  status: ('A' for Active; 'I' for Inactive)
REMARK    1  A    between atoms: _1  and  _3
REMARK    2  A    between atoms: _3  and  _4
REMARK    3  A    between atoms: _3  and  _6
REMARK    4  A    between atoms: _9  and  _11
REMARK    5  A    between atoms: _11  and  _12
REMARK    6  A    between atoms: _11  and  _14
REMARK    7  A    between atoms: _17  and  _19
REMARK    8  A    between atoms: _19  and  _20
REMARK    9  A    between atoms: _22  and  _24
REMARK   10  A    between atoms: _24  and  _25
REMARK   11  A    between atoms: _28  and  _30
REMARK   12  A    between atoms: _30  and  _31
REMARK   13  A    between atoms: _33  and  _35
REMARK   14  A    between atoms: _35  and  _36
REMARK   15  A    between atoms: _35  and  _38
REMARK   16  A    between atoms: _38  and  _39
REMARK   17  A    between atoms: _39  and  _40
REMARK   18  A    between atoms: _43  and  _45
REMARK   19  A    between atoms: _45  and  _46
REMARK   20  A    between atoms: _48  and  _50
REMARK   21  A    between atoms: _50  and  _51
REMARK   22  A    between atoms: _50  and  _53
REMARK   23  A    between atoms: _53  and  _54
REMARK   24  A    between atoms: _54  and  _55
REMARK   25  A    between atoms: _58  and  _60
REMARK   26  A    between atoms: _60  and  _61
REMARK   27  A    between atoms: _60  and  _63
REMARK   28  A    between atoms: _66  and  _68
REMARK   29  A    between atoms: _68  and  _69
REMARK   30  A    between atoms: _68  and  _71
REMARK   31  A    between atoms: _73  and  _75
REMARK   32  A    between atoms: _75  and  _76
REMARK   33  A    between atoms: _75  and  _78
REMARK   34  A    between atoms: _78  and  _79
REMARK   35  A    between atoms: _81  and  _83
REMARK   36  A    between atoms: _83  and  _84
REMARK   37  A    between atoms: _86  and  _88
REMARK   38  A    between atoms: _88  and  _89
REMARK   39  A    between atoms: _88  and  _91
REMARK   40  A    between atoms: _91  and  _92
REMARK   41  A    between atoms: _94  and  _96
REMARK   42  A    between atoms: _96  and  _97
REMARK   43  A    between atoms: _96  and  _99
REMARK   44  A    between atoms: _102  and  _104
REMARK   45  A    between atoms: _104  and  _105
REMARK   46  A    between atoms: _108  and  _110
REMARK   47  A    between atoms: _110  and  _111
REMARK   48  A    between atoms: _110  and  _113
REMARK   49  A    between atoms: _113  and  _114
REMARK   50  A    between atoms: _117  and  _119
REMARK   51  A    between atoms: _119  and  _120
REMARK   52  A    between atoms: _119  and  _122
REMARK   53  A    between atoms: _122  and  _123
REMARK   54  A    between atoms: _123  and  _124
REMARK   55  A    between atoms: _124  and  _125
REMARK   56  A    between atoms: _125  and  _126
REMARK   57  A    between atoms: _130  and  _132
REMARK   58  A    between atoms: _132  and  _133
REMARK   59  A    between atoms: _132  and  _135
REMARK   60  A    between atoms: _135  and  _136
REMARK   61  A    between atoms: _139  and  _141
REMARK   62  A    between atoms: _141  and  _142
REMARK   63  A    between atoms: _141  and  _144
REMARK   64  A    between atoms: _144  and  _145
REMARK   65  A    between atoms: _148  and  _150
REMARK   66  A    between atoms: _150  and  _151
REMARK   67  A    between atoms: _150  and  _153
REMARK   68  A    between atoms: _153  and  _154
REMARK   69  A    between atoms: _160  and  _162
REMARK   70  A    between atoms: _162  and  _163
REMARK   71  A    between atoms: _165  and  _167
REMARK   72  A    between atoms: _167  and  _168
REMARK   73  A    between atoms: _167  and  _170
REMARK   74  A    between atoms: _170  and  _171
REMARK   75  A    between atoms: _171  and  _172
REMARK   76  A    between atoms: _175  and  _177
REMARK   77  A    between atoms: _177  and  _178
REMARK   78  A    between atoms: _181  and  _183
REMARK   79  A    between atoms: _183  and  _184
REMARK   80  A    between atoms: _183  and  _186
REMARK   81  A    between atoms: _186  and  _187
REMARK   82  A    between atoms: _189  and  _191
REMARK   83  A    between atoms: _191  and  _192
REMARK   84  A    between atoms: _191  and  _194
REMARK   85  A    between atoms: _194  and  _195
REMARK   86  A    between atoms: _198  and  _200
REMARK   87  A    between atoms: _200  and  _201
REMARK   88  A    between atoms: _200  and  _203
REMARK   89  A    between atoms: _203  and  _204
REMARK   90  A    between atoms: _204  and  _205
REMARK   91  A    between atoms: _207  and  _209
REMARK   92  A    between atoms: _209  and  _210
REMARK   93  A    between atoms: _212  and  _214
REMARK   94  A    between atoms: _214  and  _215
REMARK   95  A    between atoms: _214  and  _217
REMARK   96  A    between atoms: _217  and  _218
REMARK   97  A    between atoms: _218  and  _219
REMARK   98  A    between atoms: _224  and  _226
REMARK   99  A    between atoms: _226  and  _227
REMARK  100  A    between atoms: _226  and  _229
REMARK  101  A    between atoms: _229  and  _230
REMARK  102  A    between atoms: _236  and  _238
REMARK  103  A    between atoms: _238  and  _239
REMARK  104  A    between atoms: _238  and  _241
REMARK  105  A    between atoms: _241  and  _242
REMARK  106  A    between atoms: _247  and  _249
REMARK  107  A    between atoms: _249  and  _250
REMARK  108  A    between atoms: _249  and  _252
REMARK  109  A    between atoms: _252  and  _253
REMARK  110  A    between atoms: _256  and  _258
REMARK  111  A    between atoms: _258  and  _259
REMARK  112  A    between atoms: _258  and  _261
REMARK  113  A    between atoms: _261  and  _262
REMARK  114  A    between atoms: _265  and  _267
REMARK  115  A    between atoms: _267  and  _268
REMARK  116  A    between atoms: _267  and  _270
REMARK  117  A    between atoms: _270  and  _271
REMARK  118  A    between atoms: _271  and  _272
REMARK  119  A    between atoms: _272  and  _273
REMARK  120  A    between atoms: _282  and  _284
REMARK  121  A    between atoms: _284  and  _285
REMARK  122  A    between atoms: _284  and  _287
REMARK  123  A    between atoms: _287  and  _288
REMARK  124  A    between atoms: _291  and  _293
REMARK  125  A    between atoms: _293  and  _294
REMARK  126  A    between atoms: _293  and  _296
REMARK  127  A    between atoms: _296  and  _297
REMARK  128  A    between atoms: _300  and  _302
REMARK  129  A    between atoms: _302  and  _303
REMARK  130  A    between atoms: _302  and  _305
REMARK  131  A    between atoms: _308  and  _310
REMARK  132  A    between atoms: _310  and  _311
REMARK  133  A    between atoms: _310  and  _313
REMARK  134  A    between atoms: _313  and  _314
REMARK  135  A    between atoms: _317  and  _319
REMARK  136  A    between atoms: _319  and  _320
REMARK  137  A    between atoms: _319  and  _322
REMARK  138  A    between atoms: _322  and  _323
REMARK  139  A    between atoms: _323  and  _324
REMARK  140  A    between atoms: _327  and  _329
REMARK  141  A    between atoms: _329  and  _330
REMARK  142  A    between atoms: _329  and  _332
REMARK  143  A    between atoms: _332  and  _333
REMARK  144  A    between atoms: _338  and  _339
REMARK  145  A    between atoms: _341  and  _343
REMARK  146  A    between atoms: _343  and  _344
REMARK  147  A    between atoms: _343  and  _346
REMARK  148  A    between atoms: _346  and  _347
REMARK  149  A    between atoms: _347  and  _348
REMARK  150  A    between atoms: _350  and  _352
REMARK  151  A    between atoms: _352  and  _353
REMARK  152  A    between atoms: _352  and  _355
REMARK  153  A    between atoms: _355  and  _356
REMARK  154  A    between atoms: _356  and  _357
REMARK  155  A    between atoms: _360  and  _362
REMARK  156  A    between atoms: _362  and  _363
REMARK  157  A    between atoms: _362  and  _365
REMARK  158  A    between atoms: _365  and  _366
REMARK  159  A    between atoms: _371  and  _373
REMARK  160  A    between atoms: _373  and  _374
REMARK  161  A    between atoms: _376  and  _378
REMARK  162  A    between atoms: _378  and  _379
REMARK  163  A    between atoms: _378  and  _381
REMARK  164  A    between atoms: _381  and  _382
REMARK  165  A    between atoms: _384  and  _386
REMARK  166  A    between atoms: _386  and  _387
REMARK  167  A    between atoms: _386  and  _389
REMARK  168  A    between atoms: _389  and  _390
REMARK  169  A    between atoms: _392  and  _394
REMARK  170  A    between atoms: _394  and  _395
REMARK  171  A    between atoms: _397  and  _399
REMARK  172  A    between atoms: _399  and  _400
REMARK  173  A    between atoms: _399  and  _402
REMARK  174  A    between atoms: _402  and  _403
REMARK  175  A    between atoms: _403  and  _404
REMARK  176  A    between atoms: _406  and  _408
REMARK  177  A    between atoms: _408  and  _409
REMARK  178  A    between atoms: _408  and  _411
REMARK  179  A    between atoms: _411  and  _412
REMARK  180  A    between atoms: _417  and  _418
REMARK  181  A    between atoms: _420  and  _422
REMARK  182  A    between atoms: _422  and  _423
REMARK  183  A    between atoms: _422  and  _425
REMARK  184  A    between atoms: _425  and  _426
REMARK  185  A    between atoms: _429  and  _431
REMARK  186  A    between atoms: _431  and  _432
REMARK  187  A    between atoms: _431  and  _434
REMARK  188  A    between atoms: _434  and  _435
REMARK  189  A    between atoms: _440  and  _441
REMARK  190  A    between atoms: _443  and  _445
REMARK  191  A    between atoms: _445  and  _446
REMARK  192  A    between atoms: _445  and  _448
REMARK  193  A    between atoms: _451  and  _453
REMARK  194  A    between atoms: _453  and  _454
REMARK  195  A    between atoms: _453  and  _456
REMARK  196  A    between atoms: _456  and  _457
REMARK  197  A    between atoms: _462  and  _464
REMARK  198  A    between atoms: _464  and  _465
REMARK  199  A    between atoms: _464  and  _467
REMARK  200  A    between atoms: _467  and  _468
REMARK  201  A    between atoms: _468  and  _469
REMARK  202  A    between atoms: _469  and  _470
REMARK  203  A    between atoms: _479  and  _481
REMARK  204  A    between atoms: _481  and  _482
REMARK  205  A    between atoms: _481  and  _484
REMARK  206  A    between atoms: _484  and  _485
REMARK  207  A    between atoms: _488  and  _490
REMARK  208  A    between atoms: _490  and  _491
REMARK  209  A    between atoms: _490  and  _493
REMARK  210  A    between atoms: _493  and  _494
REMARK  211  A    between atoms: _494  and  _495
REMARK  212  A    between atoms: _495  and  _496
REMARK  213  A    between atoms: _505  and  _507
REMARK  214  A    between atoms: _507  and  _508
REMARK  215  A    between atoms: _507  and  _510
REMARK  216  A    between atoms: _510  and  _511
REMARK  217  A    between atoms: _516  and  _518
REMARK  218  A    between atoms: _518  and  _519
REMARK  219  A    between atoms: _518  and  _521
REMARK  220  A    between atoms: _521  and  _522
REMARK  221  A    between atoms: _525  and  _527
REMARK  222  A    between atoms: _527  and  _528
REMARK  223  A    between atoms: _527  and  _530
REMARK  224  A    between atoms: _530  and  _531
REMARK  225  A    between atoms: _534  and  _536
REMARK  226  A    between atoms: _536  and  _537
REMARK  227  A    between atoms: _536  and  _539
REMARK  228  A    between atoms: _539  and  _540
REMARK  229  A    between atoms: _543  and  _545
REMARK  230  A    between atoms: _545  and  _546
REMARK  231  A    between atoms: _545  and  _548
REMARK  232  A    between atoms: _548  and  _549
REMARK  233  A    between atoms: _554  and  _556
REMARK  234  A    between atoms: _556  and  _557
REMARK  235  A    between atoms: _556  and  _559
REMARK  236  A    between atoms: _559  and  _560
REMARK  237  A    between atoms: _560  and  _561
REMARK  238  A    between atoms: _561  and  _562
REMARK  239  A    between atoms: _562  and  _563
REMARK  240  A    between atoms: _567  and  _569
REMARK  241  A    between atoms: _569  and  _570
REMARK  242  A    between atoms: _569  and  _572
REMARK  243  A    between atoms: _575  and  _577
REMARK  244  A    between atoms: _577  and  _578
REMARK  245  A    between atoms: _577  and  _580
REMARK  246  A    between atoms: _580  and  _581
REMARK  247  A    between atoms: _583  and  _585
REMARK  248  A    between atoms: _585  and  _586
REMARK  249  A    between atoms: _585  and  _588
REMARK  250  A    between atoms: _588  and  _589
REMARK  251  A    between atoms: _592  and  _594
REMARK  252  A    between atoms: _594  and  _595
REMARK  253  A    between atoms: _594  and  _597
REMARK  254  A    between atoms: _597  and  _598
REMARK                            x       y       z     vdW  Elec       q    Type
REMARK                         _______ _______ _______ _____ _____    ______ ____
ROOT
ATOM      1  O   HOH     1      -2.413 -16.985 -16.803  0.00  0.00    +0.000 OA
ENDROOT
TORSDOF 0
REMARK  Name = ../refined-set-2016/4p5z/4p5z_pocket.pdb
REMARK  254 active torsions:
REMARK  status: ('A' for Active; 'I' for Inactive)
REMARK    1  A    between atoms: _1  and  _3
REMARK    2  A    between atoms: _3  and  _4
REMARK    3  A    between atoms: _3  and  _6
REMARK    4  A    between atoms: _9  and  _11
REMARK    5  A    between atoms: _11  and  _12
REMARK    6  A    between atoms: _11  and  _14
REMARK    7  A    between atoms: _17  and  _19
REMARK    8  A    between atoms: _19  and  _20
REMARK    9  A    between atoms: _22  and  _24
REMARK   10  A    between atoms: _24  and  _25
REMARK   11  A    between atoms: _28  and  _30
REMARK   12  A    between atoms: _30  and  _31
REMARK   13  A    between atoms: _33  and  _35
REMARK   14  A    between atoms: _35  and  _36
REMARK   15  A    between atoms: _35  and  _38
REMARK   16  A    between atoms: _38  and  _39
REMARK   17  A    between atoms: _39  and  _40
REMARK   18  A    between atoms: _43  and  _45
REMARK   19  A    between atoms: _45  and  _46
REMARK   20  A    between atoms: _48  and  _50
REMARK   21  A    between atoms: _50  and  _51
REMARK   22  A    between atoms: _50  and  _53
REMARK   23  A    between atoms: _53  and  _54
REMARK   24  A    between atoms: _54  and  _55
REMARK   25  A    between atoms: _58  and  _60
REMARK   26  A    between atoms: _60  and  _61
REMARK   27  A    between atoms: _60  and  _63
REMARK   28  A    between atoms: _66  and  _68
REMARK   29  A    between atoms: _68  and  _69
REMARK   30  A    between atoms: _68  and  _71
REMARK   31  A    between atoms: _73  and  _75
REMARK   32  A    between atoms: _75  and  _76
REMARK   33  A    between atoms: _75  and  _78
REMARK   34  A    between atoms: _78  and  _79
REMARK   35  A    between atoms: _81  and  _83
REMARK   36  A    between atoms: _83  and  _84
REMARK   37  A    between atoms: _86  and  _88
REMARK   38  A    between atoms: _88  and  _89
REMARK   39  A    between atoms: _88  and  _91
REMARK   40  A    between atoms: _91  and  _92
REMARK   41  A    between atoms: _94  and  _96
REMARK   42  A    between atoms: _96  and  _97
REMARK   43  A    between atoms: _96  and  _99
REMARK   44  A    between atoms: _102  and  _104
REMARK   45  A    between atoms: _104  and  _105
REMARK   46  A    between atoms: _108  and  _110
REMARK   47  A    between atoms: _110  and  _111
REMARK   48  A    between atoms: _110  and  _113
REMARK   49  A    between atoms: _113  and  _114
REMARK   50  A    between atoms: _117  and  _119
REMARK   51  A    between atoms: _119  and  _120
REMARK   52  A    between atoms: _119  and  _122
REMARK   53  A    between atoms: _122  and  _123
REMARK   54  A    between atoms: _123  and  _124
REMARK   55  A    between atoms: _124  and  _125
REMARK   56  A    between atoms: _125  and  _126
REMARK   57  A    between atoms: _130  and  _132
REMARK   58  A    between atoms: _132  and  _133
REMARK   59  A    between atoms: _132  and  _135
REMARK   60  A    between atoms: _135  and  _136
REMARK   61  A    between atoms: _139  and  _141
REMARK   62  A    between atoms: _141  and  _142
REMARK   63  A    between atoms: _141  and  _144
REMARK   64  A    between atoms: _144  and  _145
REMARK   65  A    between atoms: _148  and  _150
REMARK   66  A    between atoms: _150  and  _151
REMARK   67  A    between atoms: _150  and  _153
REMARK   68  A    between atoms: _153  and  _154
REMARK   69  A    between atoms: _160  and  _162
REMARK   70  A    between atoms: _162  and  _163
REMARK   71  A    between atoms: _165  and  _167
REMARK   72  A    between atoms: _167  and  _168
REMARK   73  A    between atoms: _167  and  _170
REMARK   74  A    between atoms: _170  and  _171
REMARK   75  A    between atoms: _171  and  _172
REMARK   76  A    between atoms: _175  and  _177
REMARK   77  A    between atoms: _177  and  _178
REMARK   78  A    between atoms: _181  and  _183
REMARK   79  A    between atoms: _183  and  _184
REMARK   80  A    between atoms: _183  and  _186
REMARK   81  A    between atoms: _186  and  _187
REMARK   82  A    between atoms: _189  and  _191
REMARK   83  A    between atoms: _191  and  _192
REMARK   84  A    between atoms: _191  and  _194
REMARK   85  A    between atoms: _194  and  _195
REMARK   86  A    between atoms: _198  and  _200
REMARK   87  A    between atoms: _200  and  _201
REMARK   88  A    between atoms: _200  and  _203
REMARK   89  A    between atoms: _203  and  _204
REMARK   90  A    between atoms: _204  and  _205
REMARK   91  A    between atoms: _207  and  _209
REMARK   92  A    between atoms: _209  and  _210
REMARK   93  A    between atoms: _212  and  _214
REMARK   94  A    between atoms: _214  and  _215
REMARK   95  A    between atoms: _214  and  _217
REMARK   96  A    between atoms: _217  and  _218
REMARK   97  A    between atoms: _218  and  _219
REMARK   98  A    between atoms: _224  and  _226
REMARK   99  A    between atoms: _226  and  _227
REMARK  100  A    between atoms: _226  and  _229
REMARK  101  A    between atoms: _229  and  _230
REMARK  102  A    between atoms: _236  and  _238
REMARK  103  A    between atoms: _238  and  _239
REMARK  104  A    between atoms: _238  and  _241
REMARK  105  A    between atoms: _241  and  _242
REMARK  106  A    between atoms: _247  and  _249
REMARK  107  A    between atoms: _249  and  _250
REMARK  108  A    between atoms: _249  and  _252
REMARK  109  A    between atoms: _252  and  _253
REMARK  110  A    between atoms: _256  and  _258
REMARK  111  A    between atoms: _258  and  _259
REMARK  112  A    between atoms: _258  and  _261
REMARK  113  A    between atoms: _261  and  _262
REMARK  114  A    between atoms: _265  and  _267
REMARK  115  A    between atoms: _267  and  _268
REMARK  116  A    between atoms: _267  and  _270
REMARK  117  A    between atoms: _270  and  _271
REMARK  118  A    between atoms: _271  and  _272
REMARK  119  A    between atoms: _272  and  _273
REMARK  120  A    between atoms: _282  and  _284
REMARK  121  A    between atoms: _284  and  _285
REMARK  122  A    between atoms: _284  and  _287
REMARK  123  A    between atoms: _287  and  _288
REMARK  124  A    between atoms: _291  and  _293
REMARK  125  A    between atoms: _293  and  _294
REMARK  126  A    between atoms: _293  and  _296
REMARK  127  A    between atoms: _296  and  _297
REMARK  128  A    between atoms: _300  and  _302
REMARK  129  A    between atoms: _302  and  _303
REMARK  130  A    between atoms: _302  and  _305
REMARK  131  A    between atoms: _308  and  _310
REMARK  132  A    between atoms: _310  and  _311
REMARK  133  A    between atoms: _310  and  _313
REMARK  134  A    between atoms: _313  and  _314
REMARK  135  A    between atoms: _317  and  _319
REMARK  136  A    between atoms: _319  and  _320
REMARK  137  A    between atoms: _319  and  _322
REMARK  138  A    between atoms: _322  and  _323
REMARK  139  A    between atoms: _323  and  _324
REMARK  140  A    between atoms: _327  and  _329
REMARK  141  A    between atoms: _329  and  _330
REMARK  142  A    between atoms: _329  and  _332
REMARK  143  A    between atoms: _332  and  _333
REMARK  144  A    between atoms: _338  and  _339
REMARK  145  A    between atoms: _341  and  _343
REMARK  146  A    between atoms: _343  and  _344
REMARK  147  A    between atoms: _343  and  _346
REMARK  148  A    between atoms: _346  and  _347
REMARK  149  A    between atoms: _347  and  _348
REMARK  150  A    between atoms: _350  and  _352
REMARK  151  A    between atoms: _352  and  _353
REMARK  152  A    between atoms: _352  and  _355
REMARK  153  A    between atoms: _355  and  _356
REMARK  154  A    between atoms: _356  and  _357
REMARK  155  A    between atoms: _360  and  _362
REMARK  156  A    between atoms: _362  and  _363
REMARK  157  A    between atoms: _362  and  _365
REMARK  158  A    between atoms: _365  and  _366
REMARK  159  A    between atoms: _371  and  _373
REMARK  160  A    between atoms: _373  and  _374
REMARK  161  A    between atoms: _376  and  _378
REMARK  162  A    between atoms: _378  and  _379
REMARK  163  A    between atoms: _378  and  _381
REMARK  164  A    between atoms: _381  and  _382
REMARK  165  A    between atoms: _384  and  _386
REMARK  166  A    between atoms: _386  and  _387
REMARK  167  A    between atoms: _386  and  _389
REMARK  168  A    between atoms: _389  and  _390
REMARK  169  A    between atoms: _392  and  _394
REMARK  170  A    between atoms: _394  and  _395
REMARK  171  A    between atoms: _397  and  _399
REMARK  172  A    between atoms: _399  and  _400
REMARK  173  A    between atoms: _399  and  _402
REMARK  174  A    between atoms: _402  and  _403
REMARK  175  A    between atoms: _403  and  _404
REMARK  176  A    between atoms: _406  and  _408
REMARK  177  A    between atoms: _408  and  _409
REMARK  178  A    between atoms: _408  and  _411
REMARK  179  A    between atoms: _411  and  _412
REMARK  180  A    between atoms: _417  and  _418
REMARK  181  A    between atoms: _420  and  _422
REMARK  182  A    between atoms: _422  and  _423
REMARK  183  A    between atoms: _422  and  _425
REMARK  184  A    between atoms: _425  and  _426
REMARK  185  A    between atoms: _429  and  _431
REMARK  186  A    between atoms: _431  and  _432
REMARK  187  A    between atoms: _431  and  _434
REMARK  188  A    between atoms: _434  and  _435
REMARK  189  A    between atoms: _440  and  _441
REMARK  190  A    between atoms: _443  and  _445
REMARK  191  A    between atoms: _445  and  _446
REMARK  192  A    between atoms: _445  and  _448
REMARK  193  A    between atoms: _451  and  _453
REMARK  194  A    between atoms: _453  and  _454
REMARK  195  A    between atoms: _453  and  _456
REMARK  196  A    between atoms: _456  and  _457
REMARK  197  A    between atoms: _462  and  _464
REMARK  198  A    between atoms: _464  and  _465
REMARK  199  A    between atoms: _464  and  _467
REMARK  200  A    between atoms: _467  and  _468
REMARK  201  A    between atoms: _468  and  _469
REMARK  202  A    between atoms: _469  and  _470
REMARK  203  A    between atoms: _479  and  _481
REMARK  204  A    between atoms: _481  and  _482
REMARK  205  A    between atoms: _481  and  _484
REMARK  206  A    between atoms: _484  and  _485
REMARK  207  A    between atoms: _488  and  _490
REMARK  208  A    between atoms: _490  and  _491
REMARK  209  A    between atoms: _490  and  _493
REMARK  210  A    between atoms: _493  and  _494
REMARK  211  A    between atoms: _494  and  _495
REMARK  212  A    between atoms: _495  and  _496
REMARK  213  A    between atoms: _505  and  _507
REMARK  214  A    between atoms: _507  and  _508
REMARK  215  A    between atoms: _507  and  _510
REMARK  216  A    between atoms: _510  and  _511
REMARK  217  A    between atoms: _516  and  _518
REMARK  218  A    between atoms: _518  and  _519
REMARK  219  A    between atoms: _518  and  _521
REMARK  220  A    between atoms: _521  and  _522
REMARK  221  A    between atoms: _525  and  _527
REMARK  222  A    between atoms: _527  and  _528
REMARK  223  A    between atoms: _527  and  _530
REMARK  224  A    between atoms: _530  and  _531
REMARK  225  A    between atoms: _534  and  _536
REMARK  226  A    between atoms: _536  and  _537
REMARK  227  A    between atoms: _536  and  _539
REMARK  228  A    between atoms: _539  and  _540
REMARK  229  A    between atoms: _543  and  _545
REMARK  230  A    between atoms: _545  and  _546
REMARK  231  A    between atoms: _545  and  _548
REMARK  232  A    between atoms: _548  and  _549
REMARK  233  A    between atoms: _554  and  _556
REMARK  234  A    between atoms: _556  and  _557
REMARK  235  A    between atoms: _556  and  _559
REMARK  236  A    between atoms: _559  and  _560
REMARK  237  A    between atoms: _560  and  _561
REMARK  238  A    between atoms: _561  and  _562
REMARK  239  A    between atoms: _562  and  _563
REMARK  240  A    between atoms: _567  and  _569
REMARK  241  A    between atoms: _569  and  _570
REMARK  242  A    between atoms: _569  and  _572
REMARK  243  A    between atoms: _575  and  _577
REMARK  244  A    between atoms: _577  and  _578
REMARK  245  A    between atoms: _577  and  _580
REMARK  246  A    between atoms: _580  and  _581
REMARK  247  A    between atoms: _583  and  _585
REMARK  248  A    between atoms: _585  and  _586
REMARK  249  A    between atoms: _585  and  _588
REMARK  250  A    between atoms: _588  and  _589
REMARK  251  A    between atoms: _592  and  _594
REMARK  252  A    between atoms: _594  and  _595
REMARK  253  A    between atoms: _594  and  _597
REMARK  254  A    between atoms: _597  and  _598
REMARK                            x       y       z     vdW  Elec       q    Type
REMARK                         _______ _______ _______ _____ _____    ______ ____
ROOT
ATOM      1  O   HOH     1      -3.518 -13.048 -20.154  0.00  0.00    +0.000 OA
ENDROOT
TORSDOF 0
REMARK  Name = ../refined-set-2016/4p5z/4p5z_pocket.pdb
REMARK  254 active torsions:
REMARK  status: ('A' for Active; 'I' for Inactive)
REMARK    1  A    between atoms: _1  and  _3
REMARK    2  A    between atoms: _3  and  _4
REMARK    3  A    between atoms: _3  and  _6
REMARK    4  A    between atoms: _9  and  _11
REMARK    5  A    between atoms: _11  and  _12
REMARK    6  A    between atoms: _11  and  _14
REMARK    7  A    between atoms: _17  and  _19
REMARK    8  A    between atoms: _19  and  _20
REMARK    9  A    between atoms: _22  and  _24
REMARK   10  A    between atoms: _24  and  _25
REMARK   11  A    between atoms: _28  and  _30
REMARK   12  A    between atoms: _30  and  _31
REMARK   13  A    between atoms: _33  and  _35
REMARK   14  A    between atoms: _35  and  _36
REMARK   15  A    between atoms: _35  and  _38
REMARK   16  A    between atoms: _38  and  _39
REMARK   17  A    between atoms: _39  and  _40
REMARK   18  A    between atoms: _43  and  _45
REMARK   19  A    between atoms: _45  and  _46
REMARK   20  A    between atoms: _48  and  _50
REMARK   21  A    between atoms: _50  and  _51
REMARK   22  A    between atoms: _50  and  _53
REMARK   23  A    between atoms: _53  and  _54
REMARK   24  A    between atoms: _54  and  _55
REMARK   25  A    between atoms: _58  and  _60
REMARK   26  A    between atoms: _60  and  _61
REMARK   27  A    between atoms: _60  and  _63
REMARK   28  A    between atoms: _66  and  _68
REMARK   29  A    between atoms: _68  and  _69
REMARK   30  A    between atoms: _68  and  _71
REMARK   31  A    between atoms: _73  and  _75
REMARK   32  A    between atoms: _75  and  _76
REMARK   33  A    between atoms: _75  and  _78
REMARK   34  A    between atoms: _78  and  _79
REMARK   35  A    between atoms: _81  and  _83
REMARK   36  A    between atoms: _83  and  _84
REMARK   37  A    between atoms: _86  and  _88
REMARK   38  A    between atoms: _88  and  _89
REMARK   39  A    between atoms: _88  and  _91
REMARK   40  A    between atoms: _91  and  _92
REMARK   41  A    between atoms: _94  and  _96
REMARK   42  A    between atoms: _96  and  _97
REMARK   43  A    between atoms: _96  and  _99
REMARK   44  A    between atoms: _102  and  _104
REMARK   45  A    between atoms: _104  and  _105
REMARK   46  A    between atoms: _108  and  _110
REMARK   47  A    between atoms: _110  and  _111
REMARK   48  A    between atoms: _110  and  _113
REMARK   49  A    between atoms: _113  and  _114
REMARK   50  A    between atoms: _117  and  _119
REMARK   51  A    between atoms: _119  and  _120
REMARK   52  A    between atoms: _119  and  _122
REMARK   53  A    between atoms: _122  and  _123
REMARK   54  A    between atoms: _123  and  _124
REMARK   55  A    between atoms: _124  and  _125
REMARK   56  A    between atoms: _125  and  _126
REMARK   57  A    between atoms: _130  and  _132
REMARK   58  A    between atoms: _132  and  _133
REMARK   59  A    between atoms: _132  and  _135
REMARK   60  A    between atoms: _135  and  _136
REMARK   61  A    between atoms: _139  and  _141
REMARK   62  A    between atoms: _141  and  _142
REMARK   63  A    between atoms: _141  and  _144
REMARK   64  A    between atoms: _144  and  _145
REMARK   65  A    between atoms: _148  and  _150
REMARK   66  A    between atoms: _150  and  _151
REMARK   67  A    between atoms: _150  and  _153
REMARK   68  A    between atoms: _153  and  _154
REMARK   69  A    between atoms: _160  and  _162
REMARK   70  A    between atoms: _162  and  _163
REMARK   71  A    between atoms: _165  and  _167
REMARK   72  A    between atoms: _167  and  _168
REMARK   73  A    between atoms: _167  and  _170
REMARK   74  A    between atoms: _170  and  _171
REMARK   75  A    between atoms: _171  and  _172
REMARK   76  A    between atoms: _175  and  _177
REMARK   77  A    between atoms: _177  and  _178
REMARK   78  A    between atoms: _181  and  _183
REMARK   79  A    between atoms: _183  and  _184
REMARK   80  A    between atoms: _183  and  _186
REMARK   81  A    between atoms: _186  and  _187
REMARK   82  A    between atoms: _189  and  _191
REMARK   83  A    between atoms: _191  and  _192
REMARK   84  A    between atoms: _191  and  _194
REMARK   85  A    between atoms: _194  and  _195
REMARK   86  A    between atoms: _198  and  _200
REMARK   87  A    between atoms: _200  and  _201
REMARK   88  A    between atoms: _200  and  _203
REMARK   89  A    between atoms: _203  and  _204
REMARK   90  A    between atoms: _204  and  _205
REMARK   91  A    between atoms: _207  and  _209
REMARK   92  A    between atoms: _209  and  _210
REMARK   93  A    between atoms: _212  and  _214
REMARK   94  A    between atoms: _214  and  _215
REMARK   95  A    between atoms: _214  and  _217
REMARK   96  A    between atoms: _217  and  _218
REMARK   97  A    between atoms: _218  and  _219
REMARK   98  A    between atoms: _224  and  _226
REMARK   99  A    between atoms: _226  and  _227
REMARK  100  A    between atoms: _226  and  _229
REMARK  101  A    between atoms: _229  and  _230
REMARK  102  A    between atoms: _236  and  _238
REMARK  103  A    between atoms: _238  and  _239
REMARK  104  A    between atoms: _238  and  _241
REMARK  105  A    between atoms: _241  and  _242
REMARK  106  A    between atoms: _247  and  _249
REMARK  107  A    between atoms: _249  and  _250
REMARK  108  A    between atoms: _249  and  _252
REMARK  109  A    between atoms: _252  and  _253
REMARK  110  A    between atoms: _256  and  _258
REMARK  111  A    between atoms: _258  and  _259
REMARK  112  A    between atoms: _258  and  _261
REMARK  113  A    between atoms: _261  and  _262
REMARK  114  A    between atoms: _265  and  _267
REMARK  115  A    between atoms: _267  and  _268
REMARK  116  A    between atoms: _267  and  _270
REMARK  117  A    between atoms: _270  and  _271
REMARK  118  A    between atoms: _271  and  _272
REMARK  119  A    between atoms: _272  and  _273
REMARK  120  A    between atoms: _282  and  _284
REMARK  121  A    between atoms: _284  and  _285
REMARK  122  A    between atoms: _284  and  _287
REMARK  123  A    between atoms: _287  and  _288
REMARK  124  A    between atoms: _291  and  _293
REMARK  125  A    between atoms: _293  and  _294
REMARK  126  A    between atoms: _293  and  _296
REMARK  127  A    between atoms: _296  and  _297
REMARK  128  A    between atoms: _300  and  _302
REMARK  129  A    between atoms: _302  and  _303
REMARK  130  A    between atoms: _302  and  _305
REMARK  131  A    between atoms: _308  and  _310
REMARK  132  A    between atoms: _310  and  _311
REMARK  133  A    between atoms: _310  and  _313
REMARK  134  A    between atoms: _313  and  _314
REMARK  135  A    between atoms: _317  and  _319
REMARK  136  A    between atoms: _319  and  _320
REMARK  137  A    between atoms: _319  and  _322
REMARK  138  A    between atoms: _322  and  _323
REMARK  139  A    between atoms: _323  and  _324
REMARK  140  A    between atoms: _327  and  _329
REMARK  141  A    between atoms: _329  and  _330
REMARK  142  A    between atoms: _329  and  _332
REMARK  143  A    between atoms: _332  and  _333
REMARK  144  A    between atoms: _338  and  _339
REMARK  145  A    between atoms: _341  and  _343
REMARK  146  A    between atoms: _343  and  _344
REMARK  147  A    between atoms: _343  and  _346
REMARK  148  A    between atoms: _346  and  _347
REMARK  149  A    between atoms: _347  and  _348
REMARK  150  A    between atoms: _350  and  _352
REMARK  151  A    between atoms: _352  and  _353
REMARK  152  A    between atoms: _352  and  _355
REMARK  153  A    between atoms: _355  and  _356
REMARK  154  A    between atoms: _356  and  _357
REMARK  155  A    between atoms: _360  and  _362
REMARK  156  A    between atoms: _362  and  _363
REMARK  157  A    between atoms: _362  and  _365
REMARK  158  A    between atoms: _365  and  _366
REMARK  159  A    between atoms: _371  and  _373
REMARK  160  A    between atoms: _373  and  _374
REMARK  161  A    between atoms: _376  and  _378
REMARK  162  A    between atoms: _378  and  _379
REMARK  163  A    between atoms: _378  and  _381
REMARK  164  A    between atoms: _381  and  _382
REMARK  165  A    between atoms: _384  and  _386
REMARK  166  A    between atoms: _386  and  _387
REMARK  167  A    between atoms: _386  and  _389
REMARK  168  A    between atoms: _389  and  _390
REMARK  169  A    between atoms: _392  and  _394
REMARK  170  A    between atoms: _394  and  _395
REMARK  171  A    between atoms: _397  and  _399
REMARK  172  A    between atoms: _399  and  _400
REMARK  173  A    between atoms: _399  and  _402
REMARK  174  A    between atoms: _402  and  _403
REMARK  175  A    between atoms: _403  and  _404
REMARK  176  A    between atoms: _406  and  _408
REMARK  177  A    between atoms: _408  and  _409
REMARK  178  A    between atoms: _408  and  _411
REMARK  179  A    between atoms: _411  and  _412
REMARK  180  A    between atoms: _417  and  _418
REMARK  181  A    between atoms: _420  and  _422
REMARK  182  A    between atoms: _422  and  _423
REMARK  183  A    between atoms: _422  and  _425
REMARK  184  A    between atoms: _425  and  _426
REMARK  185  A    between atoms: _429  and  _431
REMARK  186  A    between atoms: _431  and  _432
REMARK  187  A    between atoms: _431  and  _434
REMARK  188  A    between atoms: _434  and  _435
REMARK  189  A    between atoms: _440  and  _441
REMARK  190  A    between atoms: _443  and  _445
REMARK  191  A    between atoms: _445  and  _446
REMARK  192  A    between atoms: _445  and  _448
REMARK  193  A    between atoms: _451  and  _453
REMARK  194  A    between atoms: _453  and  _454
REMARK  195  A    between atoms: _453  and  _456
REMARK  196  A    between atoms: _456  and  _457
REMARK  197  A    between atoms: _462  and  _464
REMARK  198  A    between atoms: _464  and  _465
REMARK  199  A    between atoms: _464  and  _467
REMARK  200  A    between atoms: _467  and  _468
REMARK  201  A    between atoms: _468  and  _469
REMARK  202  A    between atoms: _469  and  _470
REMARK  203  A    between atoms: _479  and  _481
REMARK  204  A    between atoms: _481  and  _482
REMARK  205  A    between atoms: _481  and  _484
REMARK  206  A    between atoms: _484  and  _485
REMARK  207  A    between atoms: _488  and  _490
REMARK  208  A    between atoms: _490  and  _491
REMARK  209  A    between atoms: _490  and  _493
REMARK  210  A    between atoms: _493  and  _494
REMARK  211  A    between atoms: _494  and  _495
REMARK  212  A    between atoms: _495  and  _496
REMARK  213  A    between atoms: _505  and  _507
REMARK  214  A    between atoms: _507  and  _508
REMARK  215  A    between atoms: _507  and  _510
REMARK  216  A    between atoms: _510  and  _511
REMARK  217  A    between atoms: _516  and  _518
REMARK  218  A    between atoms: _518  and  _519
REMARK  219  A    between atoms: _518  and  _521
REMARK  220  A    between atoms: _521  and  _522
REMARK  221  A    between atoms: _525  and  _527
REMARK  222  A    between atoms: _527  and  _528
REMARK  223  A    between atoms: _527  and  _530
REMARK  224  A    between atoms: _530  and  _531
REMARK  225  A    between atoms: _534  and  _536
REMARK  226  A    between atoms: _536  and  _537
REMARK  227  A    between atoms: _536  and  _539
REMARK  228  A    between atoms: _539  and  _540
REMARK  229  A    between atoms: _543  and  _545
REMARK  230  A    between atoms: _545  and  _546
REMARK  231  A    between atoms: _545  and  _548
REMARK  232  A    between atoms: _548  and  _549
REMARK  233  A    between atoms: _554  and  _556
REMARK  234  A    between atoms: _556  and  _557
REMARK  235  A    between atoms: _556  and  _559
REMARK  236  A    between atoms: _559  and  _560
REMARK  237  A    between atoms: _560  and  _561
REMARK  238  A    between atoms: _561  and  _562
REMARK  239  A    between atoms: _562  and  _563
REMARK  240  A    between atoms: _567  and  _569
REMARK  241  A    between atoms: _569  and  _570
REMARK  242  A    between atoms: _569  and  _572
REMARK  243  A    between atoms: _575  and  _577
REMARK  244  A    between atoms: _577  and  _578
REMARK  245  A    between atoms: _577  and  _580
REMARK  246  A    between atoms: _580  and  _581
REMARK  247  A    between atoms: _583  and  _585
REMARK  248  A    between atoms: _585  and  _586
REMARK  249  A    between atoms: _585  and  _588
REMARK  250  A    between atoms: _588  and  _589
REMARK  251  A    between atoms: _592  and  _594
REMARK  252  A    between atoms: _594  and  _595
REMARK  253  A    between atoms: _594  and  _597
REMARK  254  A    between atoms: _597  and  _598
REMARK                            x       y       z     vdW  Elec       q    Type
REMARK                         _______ _______ _______ _____ _____    ______ ____
ROOT
ATOM      1  O   HOH     1      -4.861 -18.454 -15.423  0.00  0.00    +0.000 OA
ENDROOT
TORSDOF 0
REMARK  Name = ../refined-set-2016/4p5z/4p5z_pocket.pdb
REMARK  254 active torsions:
REMARK  status: ('A' for Active; 'I' for Inactive)
REMARK    1  A    between atoms: _1  and  _3
REMARK    2  A    between atoms: _3  and  _4
REMARK    3  A    between atoms: _3  and  _6
REMARK    4  A    between atoms: _9  and  _11
REMARK    5  A    between atoms: _11  and  _12
REMARK    6  A    between atoms: _11  and  _14
REMARK    7  A    between atoms: _17  and  _19
REMARK    8  A    between atoms: _19  and  _20
REMARK    9  A    between atoms: _22  and  _24
REMARK   10  A    between atoms: _24  and  _25
REMARK   11  A    between atoms: _28  and  _30
REMARK   12  A    between atoms: _30  and  _31
REMARK   13  A    between atoms: _33  and  _35
REMARK   14  A    between atoms: _35  and  _36
REMARK   15  A    between atoms: _35  and  _38
REMARK   16  A    between atoms: _38  and  _39
REMARK   17  A    between atoms: _39  and  _40
REMARK   18  A    between atoms: _43  and  _45
REMARK   19  A    between atoms: _45  and  _46
REMARK   20  A    between atoms: _48  and  _50
REMARK   21  A    between atoms: _50  and  _51
REMARK   22  A    between atoms: _50  and  _53
REMARK   23  A    between atoms: _53  and  _54
REMARK   24  A    between atoms: _54  and  _55
REMARK   25  A    between atoms: _58  and  _60
REMARK   26  A    between atoms: _60  and  _61
REMARK   27  A    between atoms: _60  and  _63
REMARK   28  A    between atoms: _66  and  _68
REMARK   29  A    between atoms: _68  and  _69
REMARK   30  A    between atoms: _68  and  _71
REMARK   31  A    between atoms: _73  and  _75
REMARK   32  A    between atoms: _75  and  _76
REMARK   33  A    between atoms: _75  and  _78
REMARK   34  A    between atoms: _78  and  _79
REMARK   35  A    between atoms: _81  and  _83
REMARK   36  A    between atoms: _83  and  _84
REMARK   37  A    between atoms: _86  and  _88
REMARK   38  A    between atoms: _88  and  _89
REMARK   39  A    between atoms: _88  and  _91
REMARK   40  A    between atoms: _91  and  _92
REMARK   41  A    between atoms: _94  and  _96
REMARK   42  A    between atoms: _96  and  _97
REMARK   43  A    between atoms: _96  and  _99
REMARK   44  A    between atoms: _102  and  _104
REMARK   45  A    between atoms: _104  and  _105
REMARK   46  A    between atoms: _108  and  _110
REMARK   47  A    between atoms: _110  and  _111
REMARK   48  A    between atoms: _110  and  _113
REMARK   49  A    between atoms: _113  and  _114
REMARK   50  A    between atoms: _117  and  _119
REMARK   51  A    between atoms: _119  and  _120
REMARK   52  A    between atoms: _119  and  _122
REMARK   53  A    between atoms: _122  and  _123
REMARK   54  A    between atoms: _123  and  _124
REMARK   55  A    between atoms: _124  and  _125
REMARK   56  A    between atoms: _125  and  _126
REMARK   57  A    between atoms: _130  and  _132
REMARK   58  A    between atoms: _132  and  _133
REMARK   59  A    between atoms: _132  and  _135
REMARK   60  A    between atoms: _135  and  _136
REMARK   61  A    between atoms: _139  and  _141
REMARK   62  A    between atoms: _141  and  _142
REMARK   63  A    between atoms: _141  and  _144
REMARK   64  A    between atoms: _144  and  _145
REMARK   65  A    between atoms: _148  and  _150
REMARK   66  A    between atoms: _150  and  _151
REMARK   67  A    between atoms: _150  and  _153
REMARK   68  A    between atoms: _153  and  _154
REMARK   69  A    between atoms: _160  and  _162
REMARK   70  A    between atoms: _162  and  _163
REMARK   71  A    between atoms: _165  and  _167
REMARK   72  A    between atoms: _167  and  _168
REMARK   73  A    between atoms: _167  and  _170
REMARK   74  A    between atoms: _170  and  _171
REMARK   75  A    between atoms: _171  and  _172
REMARK   76  A    between atoms: _175  and  _177
REMARK   77  A    between atoms: _177  and  _178
REMARK   78  A    between atoms: _181  and  _183
REMARK   79  A    between atoms: _183  and  _184
REMARK   80  A    between atoms: _183  and  _186
REMARK   81  A    between atoms: _186  and  _187
REMARK   82  A    between atoms: _189  and  _191
REMARK   83  A    between atoms: _191  and  _192
REMARK   84  A    between atoms: _191  and  _194
REMARK   85  A    between atoms: _194  and  _195
REMARK   86  A    between atoms: _198  and  _200
REMARK   87  A    between atoms: _200  and  _201
REMARK   88  A    between atoms: _200  and  _203
REMARK   89  A    between atoms: _203  and  _204
REMARK   90  A    between atoms: _204  and  _205
REMARK   91  A    between atoms: _207  and  _209
REMARK   92  A    between atoms: _209  and  _210
REMARK   93  A    between atoms: _212  and  _214
REMARK   94  A    between atoms: _214  and  _215
REMARK   95  A    between atoms: _214  and  _217
REMARK   96  A    between atoms: _217  and  _218
REMARK   97  A    between atoms: _218  and  _219
REMARK   98  A    between atoms: _224  and  _226
REMARK   99  A    between atoms: _226  and  _227
REMARK  100  A    between atoms: _226  and  _229
REMARK  101  A    between atoms: _229  and  _230
REMARK  102  A    between atoms: _236  and  _238
REMARK  103  A    between atoms: _238  and  _239
REMARK  104  A    between atoms: _238  and  _241
REMARK  105  A    between atoms: _241  and  _242
REMARK  106  A    between atoms: _247  and  _249
REMARK  107  A    between atoms: _249  and  _250
REMARK  108  A    between atoms: _249  and  _252
REMARK  109  A    between atoms: _252  and  _253
REMARK  110  A    between atoms: _256  and  _258
REMARK  111  A    between atoms: _258  and  _259
REMARK  112  A    between atoms: _258  and  _261
REMARK  113  A    between atoms: _261  and  _262
REMARK  114  A    between atoms: _265  and  _267
REMARK  115  A    between atoms: _267  and  _268
REMARK  116  A    between atoms: _267  and  _270
REMARK  117  A    between atoms: _270  and  _271
REMARK  118  A    between atoms: _271  and  _272
REMARK  119  A    between atoms: _272  and  _273
REMARK  120  A    between atoms: _282  and  _284
REMARK  121  A    between atoms: _284  and  _285
REMARK  122  A    between atoms: _284  and  _287
REMARK  123  A    between atoms: _287  and  _288
REMARK  124  A    between atoms: _291  and  _293
REMARK  125  A    between atoms: _293  and  _294
REMARK  126  A    between atoms: _293  and  _296
REMARK  127  A    between atoms: _296  and  _297
REMARK  128  A    between atoms: _300  and  _302
REMARK  129  A    between atoms: _302  and  _303
REMARK  130  A    between atoms: _302  and  _305
REMARK  131  A    between atoms: _308  and  _310
REMARK  132  A    between atoms: _310  and  _311
REMARK  133  A    between atoms: _310  and  _313
REMARK  134  A    between atoms: _313  and  _314
REMARK  135  A    between atoms: _317  and  _319
REMARK  136  A    between atoms: _319  and  _320
REMARK  137  A    between atoms: _319  and  _322
REMARK  138  A    between atoms: _322  and  _323
REMARK  139  A    between atoms: _323  and  _324
REMARK  140  A    between atoms: _327  and  _329
REMARK  141  A    between atoms: _329  and  _330
REMARK  142  A    between atoms: _329  and  _332
REMARK  143  A    between atoms: _332  and  _333
REMARK  144  A    between atoms: _338  and  _339
REMARK  145  A    between atoms: _341  and  _343
REMARK  146  A    between atoms: _343  and  _344
REMARK  147  A    between atoms: _343  and  _346
REMARK  148  A    between atoms: _346  and  _347
REMARK  149  A    between atoms: _347  and  _348
REMARK  150  A    between atoms: _350  and  _352
REMARK  151  A    between atoms: _352  and  _353
REMARK  152  A    between atoms: _352  and  _355
REMARK  153  A    between atoms: _355  and  _356
REMARK  154  A    between atoms: _356  and  _357
REMARK  155  A    between atoms: _360  and  _362
REMARK  156  A    between atoms: _362  and  _363
REMARK  157  A    between atoms: _362  and  _365
REMARK  158  A    between atoms: _365  and  _366
REMARK  159  A    between atoms: _371  and  _373
REMARK  160  A    between atoms: _373  and  _374
REMARK  161  A    between atoms: _376  and  _378
REMARK  162  A    between atoms: _378  and  _379
REMARK  163  A    between atoms: _378  and  _381
REMARK  164  A    between atoms: _381  and  _382
REMARK  165  A    between atoms: _384  and  _386
REMARK  166  A    between atoms: _386  and  _387
REMARK  167  A    between atoms: _386  and  _389
REMARK  168  A    between atoms: _389  and  _390
REMARK  169  A    between atoms: _392  and  _394
REMARK  170  A    between atoms: _394  and  _395
REMARK  171  A    between atoms: _397  and  _399
REMARK  172  A    between atoms: _399  and  _400
REMARK  173  A    between atoms: _399  and  _402
REMARK  174  A    between atoms: _402  and  _403
REMARK  175  A    between atoms: _403  and  _404
REMARK  176  A    between atoms: _406  and  _408
REMARK  177  A    between atoms: _408  and  _409
REMARK  178  A    between atoms: _408  and  _411
REMARK  179  A    between atoms: _411  and  _412
REMARK  180  A    between atoms: _417  and  _418
REMARK  181  A    between atoms: _420  and  _422
REMARK  182  A    between atoms: _422  and  _423
REMARK  183  A    between atoms: _422  and  _425
REMARK  184  A    between atoms: _425  and  _426
REMARK  185  A    between atoms: _429  and  _431
REMARK  186  A    between atoms: _431  and  _432
REMARK  187  A    between atoms: _431  and  _434
REMARK  188  A    between atoms: _434  and  _435
REMARK  189  A    between atoms: _440  and  _441
REMARK  190  A    between atoms: _443  and  _445
REMARK  191  A    between atoms: _445  and  _446
REMARK  192  A    between atoms: _445  and  _448
REMARK  193  A    between atoms: _451  and  _453
REMARK  194  A    between atoms: _453  and  _454
REMARK  195  A    between atoms: _453  and  _456
REMARK  196  A    between atoms: _456  and  _457
REMARK  197  A    between atoms: _462  and  _464
REMARK  198  A    between atoms: _464  and  _465
REMARK  199  A    between atoms: _464  and  _467
REMARK  200  A    between atoms: _467  and  _468
REMARK  201  A    between atoms: _468  and  _469
REMARK  202  A    between atoms: _469  and  _470
REMARK  203  A    between atoms: _479  and  _481
REMARK  204  A    between atoms: _481  and  _482
REMARK  205  A    between atoms: _481  and  _484
REMARK  206  A    between atoms: _484  and  _485
REMARK  207  A    between atoms: _488  and  _490
REMARK  208  A    between atoms: _490  and  _491
REMARK  209  A    between atoms: _490  and  _493
REMARK  210  A    between atoms: _493  and  _494
REMARK  211  A    between atoms: _494  and  _495
REMARK  212  A    between atoms: _495  and  _496
REMARK  213  A    between atoms: _505  and  _507
REMARK  214  A    between atoms: _507  and  _508
REMARK  215  A    between atoms: _507  and  _510
REMARK  216  A    between atoms: _510  and  _511
REMARK  217  A    between atoms: _516  and  _518
REMARK  218  A    between atoms: _518  and  _519
REMARK  219  A    between atoms: _518  and  _521
REMARK  220  A    between atoms: _521  and  _522
REMARK  221  A    between atoms: _525  and  _527
REMARK  222  A    between atoms: _527  and  _528
REMARK  223  A    between atoms: _527  and  _530
REMARK  224  A    between atoms: _530  and  _531
REMARK  225  A    between atoms: _534  and  _536
REMARK  226  A    between atoms: _536  and  _537
REMARK  227  A    between atoms: _536  and  _539
REMARK  228  A    between atoms: _539  and  _540
REMARK  229  A    between atoms: _543  and  _545
REMARK  230  A    between atoms: _545  and  _546
REMARK  231  A    between atoms: _545  and  _548
REMARK  232  A    between atoms: _548  and  _549
REMARK  233  A    between atoms: _554  and  _556
REMARK  234  A    between atoms: _556  and  _557
REMARK  235  A    between atoms: _556  and  _559
REMARK  236  A    between atoms: _559  and  _560
REMARK  237  A    between atoms: _560  and  _561
REMARK  238  A    between atoms: _561  and  _562
REMARK  239  A    between atoms: _562  and  _563
REMARK  240  A    between atoms: _567  and  _569
REMARK  241  A    between atoms: _569  and  _570
REMARK  242  A    between atoms: _569  and  _572
REMARK  243  A    between atoms: _575  and  _577
REMARK  244  A    between atoms: _577  and  _578
REMARK  245  A    between atoms: _577  and  _580
REMARK  246  A    between atoms: _580  and  _581
REMARK  247  A    between atoms: _583  and  _585
REMARK  248  A    between atoms: _585  and  _586
REMARK  249  A    between atoms: _585  and  _588
REMARK  250  A    between atoms: _588  and  _589
REMARK  251  A    between atoms: _592  and  _594
REMARK  252  A    between atoms: _594  and  _595
REMARK  253  A    between atoms: _594  and  _597
REMARK  254  A    between atoms: _597  and  _598
REMARK                            x       y       z     vdW  Elec       q    Type
REMARK                         _______ _______ _______ _____ _____    ______ ____
ROOT
ATOM      1  O   HOH     1      -4.728 -15.484 -21.273  0.00  0.00    +0.000 OA
ENDROOT
TORSDOF 0
REMARK  Name = ../refined-set-2016/4p5z/4p5z_pocket.pdb
REMARK  254 active torsions:
REMARK  status: ('A' for Active; 'I' for Inactive)
REMARK    1  A    between atoms: _1  and  _3
REMARK    2  A    between atoms: _3  and  _4
REMARK    3  A    between atoms: _3  and  _6
REMARK    4  A    between atoms: _9  and  _11
REMARK    5  A    between atoms: _11  and  _12
REMARK    6  A    between atoms: _11  and  _14
REMARK    7  A    between atoms: _17  and  _19
REMARK    8  A    between atoms: _19  and  _20
REMARK    9  A    between atoms: _22  and  _24
REMARK   10  A    between atoms: _24  and  _25
REMARK   11  A    between atoms: _28  and  _30
REMARK   12  A    between atoms: _30  and  _31
REMARK   13  A    between atoms: _33  and  _35
REMARK   14  A    between atoms: _35  and  _36
REMARK   15  A    between atoms: _35  and  _38
REMARK   16  A    between atoms: _38  and  _39
REMARK   17  A    between atoms: _39  and  _40
REMARK   18  A    between atoms: _43  and  _45
REMARK   19  A    between atoms: _45  and  _46
REMARK   20  A    between atoms: _48  and  _50
REMARK   21  A    between atoms: _50  and  _51
REMARK   22  A    between atoms: _50  and  _53
REMARK   23  A    between atoms: _53  and  _54
REMARK   24  A    between atoms: _54  and  _55
REMARK   25  A    between atoms: _58  and  _60
REMARK   26  A    between atoms: _60  and  _61
REMARK   27  A    between atoms: _60  and  _63
REMARK   28  A    between atoms: _66  and  _68
REMARK   29  A    between atoms: _68  and  _69
REMARK   30  A    between atoms: _68  and  _71
REMARK   31  A    between atoms: _73  and  _75
REMARK   32  A    between atoms: _75  and  _76
REMARK   33  A    between atoms: _75  and  _78
REMARK   34  A    between atoms: _78  and  _79
REMARK   35  A    between atoms: _81  and  _83
REMARK   36  A    between atoms: _83  and  _84
REMARK   37  A    between atoms: _86  and  _88
REMARK   38  A    between atoms: _88  and  _89
REMARK   39  A    between atoms: _88  and  _91
REMARK   40  A    between atoms: _91  and  _92
REMARK   41  A    between atoms: _94  and  _96
REMARK   42  A    between atoms: _96  and  _97
REMARK   43  A    between atoms: _96  and  _99
REMARK   44  A    between atoms: _102  and  _104
REMARK   45  A    between atoms: _104  and  _105
REMARK   46  A    between atoms: _108  and  _110
REMARK   47  A    between atoms: _110  and  _111
REMARK   48  A    between atoms: _110  and  _113
REMARK   49  A    between atoms: _113  and  _114
REMARK   50  A    between atoms: _117  and  _119
REMARK   51  A    between atoms: _119  and  _120
REMARK   52  A    between atoms: _119  and  _122
REMARK   53  A    between atoms: _122  and  _123
REMARK   54  A    between atoms: _123  and  _124
REMARK   55  A    between atoms: _124  and  _125
REMARK   56  A    between atoms: _125  and  _126
REMARK   57  A    between atoms: _130  and  _132
REMARK   58  A    between atoms: _132  and  _133
REMARK   59  A    between atoms: _132  and  _135
REMARK   60  A    between atoms: _135  and  _136
REMARK   61  A    between atoms: _139  and  _141
REMARK   62  A    between atoms: _141  and  _142
REMARK   63  A    between atoms: _141  and  _144
REMARK   64  A    between atoms: _144  and  _145
REMARK   65  A    between atoms: _148  and  _150
REMARK   66  A    between atoms: _150  and  _151
REMARK   67  A    between atoms: _150  and  _153
REMARK   68  A    between atoms: _153  and  _154
REMARK   69  A    between atoms: _160  and  _162
REMARK   70  A    between atoms: _162  and  _163
REMARK   71  A    between atoms: _165  and  _167
REMARK   72  A    between atoms: _167  and  _168
REMARK   73  A    between atoms: _167  and  _170
REMARK   74  A    between atoms: _170  and  _171
REMARK   75  A    between atoms: _171  and  _172
REMARK   76  A    between atoms: _175  and  _177
REMARK   77  A    between atoms: _177  and  _178
REMARK   78  A    between atoms: _181  and  _183
REMARK   79  A    between atoms: _183  and  _184
REMARK   80  A    between atoms: _183  and  _186
REMARK   81  A    between atoms: _186  and  _187
REMARK   82  A    between atoms: _189  and  _191
REMARK   83  A    between atoms: _191  and  _192
REMARK   84  A    between atoms: _191  and  _194
REMARK   85  A    between atoms: _194  and  _195
REMARK   86  A    between atoms: _198  and  _200
REMARK   87  A    between atoms: _200  and  _201
REMARK   88  A    between atoms: _200  and  _203
REMARK   89  A    between atoms: _203  and  _204
REMARK   90  A    between atoms: _204  and  _205
REMARK   91  A    between atoms: _207  and  _209
REMARK   92  A    between atoms: _209  and  _210
REMARK   93  A    between atoms: _212  and  _214
REMARK   94  A    between atoms: _214  and  _215
REMARK   95  A    between atoms: _214  and  _217
REMARK   96  A    between atoms: _217  and  _218
REMARK   97  A    between atoms: _218  and  _219
REMARK   98  A    between atoms: _224  and  _226
REMARK   99  A    between atoms: _226  and  _227
REMARK  100  A    between atoms: _226  and  _229
REMARK  101  A    between atoms: _229  and  _230
REMARK  102  A    between atoms: _236  and  _238
REMARK  103  A    between atoms: _238  and  _239
REMARK  104  A    between atoms: _238  and  _241
REMARK  105  A    between atoms: _241  and  _242
REMARK  106  A    between atoms: _247  and  _249
REMARK  107  A    between atoms: _249  and  _250
REMARK  108  A    between atoms: _249  and  _252
REMARK  109  A    between atoms: _252  and  _253
REMARK  110  A    between atoms: _256  and  _258
REMARK  111  A    between atoms: _258  and  _259
REMARK  112  A    between atoms: _258  and  _261
REMARK  113  A    between atoms: _261  and  _262
REMARK  114  A    between atoms: _265  and  _267
REMARK  115  A    between atoms: _267  and  _268
REMARK  116  A    between atoms: _267  and  _270
REMARK  117  A    between atoms: _270  and  _271
REMARK  118  A    between atoms: _271  and  _272
REMARK  119  A    between atoms: _272  and  _273
REMARK  120  A    between atoms: _282  and  _284
REMARK  121  A    between atoms: _284  and  _285
REMARK  122  A    between atoms: _284  and  _287
REMARK  123  A    between atoms: _287  and  _288
REMARK  124  A    between atoms: _291  and  _293
REMARK  125  A    between atoms: _293  and  _294
REMARK  126  A    between atoms: _293  and  _296
REMARK  127  A    between atoms: _296  and  _297
REMARK  128  A    between atoms: _300  and  _302
REMARK  129  A    between atoms: _302  and  _303
REMARK  130  A    between atoms: _302  and  _305
REMARK  131  A    between atoms: _308  and  _310
REMARK  132  A    between atoms: _310  and  _311
REMARK  133  A    between atoms: _310  and  _313
REMARK  134  A    between atoms: _313  and  _314
REMARK  135  A    between atoms: _317  and  _319
REMARK  136  A    between atoms: _319  and  _320
REMARK  137  A    between atoms: _319  and  _322
REMARK  138  A    between atoms: _322  and  _323
REMARK  139  A    between atoms: _323  and  _324
REMARK  140  A    between atoms: _327  and  _329
REMARK  141  A    between atoms: _329  and  _330
REMARK  142  A    between atoms: _329  and  _332
REMARK  143  A    between atoms: _332  and  _333
REMARK  144  A    between atoms: _338  and  _339
REMARK  145  A    between atoms: _341  and  _343
REMARK  146  A    between atoms: _343  and  _344
REMARK  147  A    between atoms: _343  and  _346
REMARK  148  A    between atoms: _346  and  _347
REMARK  149  A    between atoms: _347  and  _348
REMARK  150  A    between atoms: _350  and  _352
REMARK  151  A    between atoms: _352  and  _353
REMARK  152  A    between atoms: _352  and  _355
REMARK  153  A    between atoms: _355  and  _356
REMARK  154  A    between atoms: _356  and  _357
REMARK  155  A    between atoms: _360  and  _362
REMARK  156  A    between atoms: _362  and  _363
REMARK  157  A    between atoms: _362  and  _365
REMARK  158  A    between atoms: _365  and  _366
REMARK  159  A    between atoms: _371  and  _373
REMARK  160  A    between atoms: _373  and  _374
REMARK  161  A    between atoms: _376  and  _378
REMARK  162  A    between atoms: _378  and  _379
REMARK  163  A    between atoms: _378  and  _381
REMARK  164  A    between atoms: _381  and  _382
REMARK  165  A    between atoms: _384  and  _386
REMARK  166  A    between atoms: _386  and  _387
REMARK  167  A    between atoms: _386  and  _389
REMARK  168  A    between atoms: _389  and  _390
REMARK  169  A    between atoms: _392  and  _394
REMARK  170  A    between atoms: _394  and  _395
REMARK  171  A    between atoms: _397  and  _399
REMARK  172  A    between atoms: _399  and  _400
REMARK  173  A    between atoms: _399  and  _402
REMARK  174  A    between atoms: _402  and  _403
REMARK  175  A    between atoms: _403  and  _404
REMARK  176  A    between atoms: _406  and  _408
REMARK  177  A    between atoms: _408  and  _409
REMARK  178  A    between atoms: _408  and  _411
REMARK  179  A    between atoms: _411  and  _412
REMARK  180  A    between atoms: _417  and  _418
REMARK  181  A    between atoms: _420  and  _422
REMARK  182  A    between atoms: _422  and  _423
REMARK  183  A    between atoms: _422  and  _425
REMARK  184  A    between atoms: _425  and  _426
REMARK  185  A    between atoms: _429  and  _431
REMARK  186  A    between atoms: _431  and  _432
REMARK  187  A    between atoms: _431  and  _434
REMARK  188  A    between atoms: _434  and  _435
REMARK  189  A    between atoms: _440  and  _441
REMARK  190  A    between atoms: _443  and  _445
REMARK  191  A    between atoms: _445  and  _446
REMARK  192  A    between atoms: _445  and  _448
REMARK  193  A    between atoms: _451  and  _453
REMARK  194  A    between atoms: _453  and  _454
REMARK  195  A    between atoms: _453  and  _456
REMARK  196  A    between atoms: _456  and  _457
REMARK  197  A    between atoms: _462  and  _464
REMARK  198  A    between atoms: _464  and  _465
REMARK  199  A    between atoms: _464  and  _467
REMARK  200  A    between atoms: _467  and  _468
REMARK  201  A    between atoms: _468  and  _469
REMARK  202  A    between atoms: _469  and  _470
REMARK  203  A    between atoms: _479  and  _481
REMARK  204  A    between atoms: _481  and  _482
REMARK  205  A    between atoms: _481  and  _484
REMARK  206  A    between atoms: _484  and  _485
REMARK  207  A    between atoms: _488  and  _490
REMARK  208  A    between atoms: _490  and  _491
REMARK  209  A    between atoms: _490  and  _493
REMARK  210  A    between atoms: _493  and  _494
REMARK  211  A    between atoms: _494  and  _495
REMARK  212  A    between atoms: _495  and  _496
REMARK  213  A    between atoms: _505  and  _507
REMARK  214  A    between atoms: _507  and  _508
REMARK  215  A    between atoms: _507  and  _510
REMARK  216  A    between atoms: _510  and  _511
REMARK  217  A    between atoms: _516  and  _518
REMARK  218  A    between atoms: _518  and  _519
REMARK  219  A    between atoms: _518  and  _521
REMARK  220  A    between atoms: _521  and  _522
REMARK  221  A    between atoms: _525  and  _527
REMARK  222  A    between atoms: _527  and  _528
REMARK  223  A    between atoms: _527  and  _530
REMARK  224  A    between atoms: _530  and  _531
REMARK  225  A    between atoms: _534  and  _536
REMARK  226  A    between atoms: _536  and  _537
REMARK  227  A    between atoms: _536  and  _539
REMARK  228  A    between atoms: _539  and  _540
REMARK  229  A    between atoms: _543  and  _545
REMARK  230  A    between atoms: _545  and  _546
REMARK  231  A    between atoms: _545  and  _548
REMARK  232  A    between atoms: _548  and  _549
REMARK  233  A    between atoms: _554  and  _556
REMARK  234  A    between atoms: _556  and  _557
REMARK  235  A    between atoms: _556  and  _559
REMARK  236  A    between atoms: _559  and  _560
REMARK  237  A    between atoms: _560  and  _561
REMARK  238  A    between atoms: _561  and  _562
REMARK  239  A    between atoms: _562  and  _563
REMARK  240  A    between atoms: _567  and  _569
REMARK  241  A    between atoms: _569  and  _570
REMARK  242  A    between atoms: _569  and  _572
REMARK  243  A    between atoms: _575  and  _577
REMARK  244  A    between atoms: _577  and  _578
REMARK  245  A    between atoms: _577  and  _580
REMARK  246  A    between atoms: _580  and  _581
REMARK  247  A    between atoms: _583  and  _585
REMARK  248  A    between atoms: _585  and  _586
REMARK  249  A    between atoms: _585  and  _588
REMARK  250  A    between atoms: _588  and  _589
REMARK  251  A    between atoms: _592  and  _594
REMARK  252  A    between atoms: _594  and  _595
REMARK  253  A    between atoms: _594  and  _597
REMARK  254  A    between atoms: _597  and  _598
REMARK                            x       y       z     vdW  Elec       q    Type
REMARK                         _______ _______ _______ _____ _____    ______ ____
ROOT
ATOM      1  O   HOH     1      -2.539 -17.557 -19.365  0.00  0.00    +0.000 OA
ENDROOT
TORSDOF 0
REMARK  Name = ../refined-set-2016/4p5z/4p5z_pocket.pdb
REMARK  254 active torsions:
REMARK  status: ('A' for Active; 'I' for Inactive)
REMARK    1  A    between atoms: _1  and  _3
REMARK    2  A    between atoms: _3  and  _4
REMARK    3  A    between atoms: _3  and  _6
REMARK    4  A    between atoms: _9  and  _11
REMARK    5  A    between atoms: _11  and  _12
REMARK    6  A    between atoms: _11  and  _14
REMARK    7  A    between atoms: _17  and  _19
REMARK    8  A    between atoms: _19  and  _20
REMARK    9  A    between atoms: _22  and  _24
REMARK   10  A    between atoms: _24  and  _25
REMARK   11  A    between atoms: _28  and  _30
REMARK   12  A    between atoms: _30  and  _31
REMARK   13  A    between atoms: _33  and  _35
REMARK   14  A    between atoms: _35  and  _36
REMARK   15  A    between atoms: _35  and  _38
REMARK   16  A    between atoms: _38  and  _39
REMARK   17  A    between atoms: _39  and  _40
REMARK   18  A    between atoms: _43  and  _45
REMARK   19  A    between atoms: _45  and  _46
REMARK   20  A    between atoms: _48  and  _50
REMARK   21  A    between atoms: _50  and  _51
REMARK   22  A    between atoms: _50  and  _53
REMARK   23  A    between atoms: _53  and  _54
REMARK   24  A    between atoms: _54  and  _55
REMARK   25  A    between atoms: _58  and  _60
REMARK   26  A    between atoms: _60  and  _61
REMARK   27  A    between atoms: _60  and  _63
REMARK   28  A    between atoms: _66  and  _68
REMARK   29  A    between atoms: _68  and  _69
REMARK   30  A    between atoms: _68  and  _71
REMARK   31  A    between atoms: _73  and  _75
REMARK   32  A    between atoms: _75  and  _76
REMARK   33  A    between atoms: _75  and  _78
REMARK   34  A    between atoms: _78  and  _79
REMARK   35  A    between atoms: _81  and  _83
REMARK   36  A    between atoms: _83  and  _84
REMARK   37  A    between atoms: _86  and  _88
REMARK   38  A    between atoms: _88  and  _89
REMARK   39  A    between atoms: _88  and  _91
REMARK   40  A    between atoms: _91  and  _92
REMARK   41  A    between atoms: _94  and  _96
REMARK   42  A    between atoms: _96  and  _97
REMARK   43  A    between atoms: _96  and  _99
REMARK   44  A    between atoms: _102  and  _104
REMARK   45  A    between atoms: _104  and  _105
REMARK   46  A    between atoms: _108  and  _110
REMARK   47  A    between atoms: _110  and  _111
REMARK   48  A    between atoms: _110  and  _113
REMARK   49  A    between atoms: _113  and  _114
REMARK   50  A    between atoms: _117  and  _119
REMARK   51  A    between atoms: _119  and  _120
REMARK   52  A    between atoms: _119  and  _122
REMARK   53  A    between atoms: _122  and  _123
REMARK   54  A    between atoms: _123  and  _124
REMARK   55  A    between atoms: _124  and  _125
REMARK   56  A    between atoms: _125  and  _126
REMARK   57  A    between atoms: _130  and  _132
REMARK   58  A    between atoms: _132  and  _133
REMARK   59  A    between atoms: _132  and  _135
REMARK   60  A    between atoms: _135  and  _136
REMARK   61  A    between atoms: _139  and  _141
REMARK   62  A    between atoms: _141  and  _142
REMARK   63  A    between atoms: _141  and  _144
REMARK   64  A    between atoms: _144  and  _145
REMARK   65  A    between atoms: _148  and  _150
REMARK   66  A    between atoms: _150  and  _151
REMARK   67  A    between atoms: _150  and  _153
REMARK   68  A    between atoms: _153  and  _154
REMARK   69  A    between atoms: _160  and  _162
REMARK   70  A    between atoms: _162  and  _163
REMARK   71  A    between atoms: _165  and  _167
REMARK   72  A    between atoms: _167  and  _168
REMARK   73  A    between atoms: _167  and  _170
REMARK   74  A    between atoms: _170  and  _171
REMARK   75  A    between atoms: _171  and  _172
REMARK   76  A    between atoms: _175  and  _177
REMARK   77  A    between atoms: _177  and  _178
REMARK   78  A    between atoms: _181  and  _183
REMARK   79  A    between atoms: _183  and  _184
REMARK   80  A    between atoms: _183  and  _186
REMARK   81  A    between atoms: _186  and  _187
REMARK   82  A    between atoms: _189  and  _191
REMARK   83  A    between atoms: _191  and  _192
REMARK   84  A    between atoms: _191  and  _194
REMARK   85  A    between atoms: _194  and  _195
REMARK   86  A    between atoms: _198  and  _200
REMARK   87  A    between atoms: _200  and  _201
REMARK   88  A    between atoms: _200  and  _203
REMARK   89  A    between atoms: _203  and  _204
REMARK   90  A    between atoms: _204  and  _205
REMARK   91  A    between atoms: _207  and  _209
REMARK   92  A    between atoms: _209  and  _210
REMARK   93  A    between atoms: _212  and  _214
REMARK   94  A    between atoms: _214  and  _215
REMARK   95  A    between atoms: _214  and  _217
REMARK   96  A    between atoms: _217  and  _218
REMARK   97  A    between atoms: _218  and  _219
REMARK   98  A    between atoms: _224  and  _226
REMARK   99  A    between atoms: _226  and  _227
REMARK  100  A    between atoms: _226  and  _229
REMARK  101  A    between atoms: _229  and  _230
REMARK  102  A    between atoms: _236  and  _238
REMARK  103  A    between atoms: _238  and  _239
REMARK  104  A    between atoms: _238  and  _241
REMARK  105  A    between atoms: _241  and  _242
REMARK  106  A    between atoms: _247  and  _249
REMARK  107  A    between atoms: _249  and  _250
REMARK  108  A    between atoms: _249  and  _252
REMARK  109  A    between atoms: _252  and  _253
REMARK  110  A    between atoms: _256  and  _258
REMARK  111  A    between atoms: _258  and  _259
REMARK  112  A    between atoms: _258  and  _261
REMARK  113  A    between atoms: _261  and  _262
REMARK  114  A    between atoms: _265  and  _267
REMARK  115  A    between atoms: _267  and  _268
REMARK  116  A    between atoms: _267  and  _270
REMARK  117  A    between atoms: _270  and  _271
REMARK  118  A    between atoms: _271  and  _272
REMARK  119  A    between atoms: _272  and  _273
REMARK  120  A    between atoms: _282  and  _284
REMARK  121  A    between atoms: _284  and  _285
REMARK  122  A    between atoms: _284  and  _287
REMARK  123  A    between atoms: _287  and  _288
REMARK  124  A    between atoms: _291  and  _293
REMARK  125  A    between atoms: _293  and  _294
REMARK  126  A    between atoms: _293  and  _296
REMARK  127  A    between atoms: _296  and  _297
REMARK  128  A    between atoms: _300  and  _302
REMARK  129  A    between atoms: _302  and  _303
REMARK  130  A    between atoms: _302  and  _305
REMARK  131  A    between atoms: _308  and  _310
REMARK  132  A    between atoms: _310  and  _311
REMARK  133  A    between atoms: _310  and  _313
REMARK  134  A    between atoms: _313  and  _314
REMARK  135  A    between atoms: _317  and  _319
REMARK  136  A    between atoms: _319  and  _320
REMARK  137  A    between atoms: _319  and  _322
REMARK  138  A    between atoms: _322  and  _323
REMARK  139  A    between atoms: _323  and  _324
REMARK  140  A    between atoms: _327  and  _329
REMARK  141  A    between atoms: _329  and  _330
REMARK  142  A    between atoms: _329  and  _332
REMARK  143  A    between atoms: _332  and  _333
REMARK  144  A    between atoms: _338  and  _339
REMARK  145  A    between atoms: _341  and  _343
REMARK  146  A    between atoms: _343  and  _344
REMARK  147  A    between atoms: _343  and  _346
REMARK  148  A    between atoms: _346  and  _347
REMARK  149  A    between atoms: _347  and  _348
REMARK  150  A    between atoms: _350  and  _352
REMARK  151  A    between atoms: _352  and  _353
REMARK  152  A    between atoms: _352  and  _355
REMARK  153  A    between atoms: _355  and  _356
REMARK  154  A    between atoms: _356  and  _357
REMARK  155  A    between atoms: _360  and  _362
REMARK  156  A    between atoms: _362  and  _363
REMARK  157  A    between atoms: _362  and  _365
REMARK  158  A    between atoms: _365  and  _366
REMARK  159  A    between atoms: _371  and  _373
REMARK  160  A    between atoms: _373  and  _374
REMARK  161  A    between atoms: _376  and  _378
REMARK  162  A    between atoms: _378  and  _379
REMARK  163  A    between atoms: _378  and  _381
REMARK  164  A    between atoms: _381  and  _382
REMARK  165  A    between atoms: _384  and  _386
REMARK  166  A    between atoms: _386  and  _387
REMARK  167  A    between atoms: _386  and  _389
REMARK  168  A    between atoms: _389  and  _390
REMARK  169  A    between atoms: _392  and  _394
REMARK  170  A    between atoms: _394  and  _395
REMARK  171  A    between atoms: _397  and  _399
REMARK  172  A    between atoms: _399  and  _400
REMARK  173  A    between atoms: _399  and  _402
REMARK  174  A    between atoms: _402  and  _403
REMARK  175  A    between atoms: _403  and  _404
REMARK  176  A    between atoms: _406  and  _408
REMARK  177  A    between atoms: _408  and  _409
REMARK  178  A    between atoms: _408  and  _411
REMARK  179  A    between atoms: _411  and  _412
REMARK  180  A    between atoms: _417  and  _418
REMARK  181  A    between atoms: _420  and  _422
REMARK  182  A    between atoms: _422  and  _423
REMARK  183  A    between atoms: _422  and  _425
REMARK  184  A    between atoms: _425  and  _426
REMARK  185  A    between atoms: _429  and  _431
REMARK  186  A    between atoms: _431  and  _432
REMARK  187  A    between atoms: _431  and  _434
REMARK  188  A    between atoms: _434  and  _435
REMARK  189  A    between atoms: _440  and  _441
REMARK  190  A    between atoms: _443  and  _445
REMARK  191  A    between atoms: _445  and  _446
REMARK  192  A    between atoms: _445  and  _448
REMARK  193  A    between atoms: _451  and  _453
REMARK  194  A    between atoms: _453  and  _454
REMARK  195  A    between atoms: _453  and  _456
REMARK  196  A    between atoms: _456  and  _457
REMARK  197  A    between atoms: _462  and  _464
REMARK  198  A    between atoms: _464  and  _465
REMARK  199  A    between atoms: _464  and  _467
REMARK  200  A    between atoms: _467  and  _468
REMARK  201  A    between atoms: _468  and  _469
REMARK  202  A    between atoms: _469  and  _470
REMARK  203  A    between atoms: _479  and  _481
REMARK  204  A    between atoms: _481  and  _482
REMARK  205  A    between atoms: _481  and  _484
REMARK  206  A    between atoms: _484  and  _485
REMARK  207  A    between atoms: _488  and  _490
REMARK  208  A    between atoms: _490  and  _491
REMARK  209  A    between atoms: _490  and  _493
REMARK  210  A    between atoms: _493  and  _494
REMARK  211  A    between atoms: _494  and  _495
REMARK  212  A    between atoms: _495  and  _496
REMARK  213  A    between atoms: _505  and  _507
REMARK  214  A    between atoms: _507  and  _508
REMARK  215  A    between atoms: _507  and  _510
REMARK  216  A    between atoms: _510  and  _511
REMARK  217  A    between atoms: _516  and  _518
REMARK  218  A    between atoms: _518  and  _519
REMARK  219  A    between atoms: _518  and  _521
REMARK  220  A    between atoms: _521  and  _522
REMARK  221  A    between atoms: _525  and  _527
REMARK  222  A    between atoms: _527  and  _528
REMARK  223  A    between atoms: _527  and  _530
REMARK  224  A    between atoms: _530  and  _531
REMARK  225  A    between atoms: _534  and  _536
REMARK  226  A    between atoms: _536  and  _537
REMARK  227  A    between atoms: _536  and  _539
REMARK  228  A    between atoms: _539  and  _540
REMARK  229  A    between atoms: _543  and  _545
REMARK  230  A    between atoms: _545  and  _546
REMARK  231  A    between atoms: _545  and  _548
REMARK  232  A    between atoms: _548  and  _549
REMARK  233  A    between atoms: _554  and  _556
REMARK  234  A    between atoms: _556  and  _557
REMARK  235  A    between atoms: _556  and  _559
REMARK  236  A    between atoms: _559  and  _560
REMARK  237  A    between atoms: _560  and  _561
REMARK  238  A    between atoms: _561  and  _562
REMARK  239  A    between atoms: _562  and  _563
REMARK  240  A    between atoms: _567  and  _569
REMARK  241  A    between atoms: _569  and  _570
REMARK  242  A    between atoms: _569  and  _572
REMARK  243  A    between atoms: _575  and  _577
REMARK  244  A    between atoms: _577  and  _578
REMARK  245  A    between atoms: _577  and  _580
REMARK  246  A    between atoms: _580  and  _581
REMARK  247  A    between atoms: _583  and  _585
REMARK  248  A    between atoms: _585  and  _586
REMARK  249  A    between atoms: _585  and  _588
REMARK  250  A    between atoms: _588  and  _589
REMARK  251  A    between atoms: _592  and  _594
REMARK  252  A    between atoms: _594  and  _595
REMARK  253  A    between atoms: _594  and  _597
REMARK  254  A    between atoms: _597  and  _598
REMARK                            x       y       z     vdW  Elec       q    Type
REMARK                         _______ _______ _______ _____ _____    ______ ____
ROOT
ATOM      1  O   HOH     1      -2.713 -19.843 -20.850  0.00  0.00    +0.000 OA
ENDROOT
TORSDOF 0
