REMARK  Name = ../refined-set-2016/4dfg/4dfg_pocket.pdb
REMARK  225 active torsions:
REMARK  status: ('A' for Active; 'I' for Inactive)
REMARK    1  A    between atoms: _1  and  _3
REMARK    2  A    between atoms: _3  and  _4
REMARK    3  A    between atoms: _3  and  _6
REMARK    4  A    between atoms: _6  and  _7
REMARK    5  A    between atoms: _7  and  _8
REMARK    6  A    between atoms: _8  and  _9
REMARK    7  A    between atoms: _18  and  _20
REMARK    8  A    between atoms: _20  and  _21
REMARK    9  A    between atoms: _20  and  _23
REMARK   10  A    between atoms: _23  and  _24
REMARK   11  A    between atoms: _27  and  _29
REMARK   12  A    between atoms: _29  and  _30
REMARK   13  A    between atoms: _29  and  _32
REMARK   14  A    between atoms: _32  and  _33
REMARK   15  A    between atoms: _36  and  _38
REMARK   16  A    between atoms: _38  and  _39
REMARK   17  A    between atoms: _38  and  _41
REMARK   18  A    between atoms: _41  and  _42
REMARK   19  A    between atoms: _45  and  _47
REMARK   20  A    between atoms: _47  and  _48
REMARK   21  A    between atoms: _47  and  _50
REMARK   22  A    between atoms: _50  and  _51
REMARK   23  A    between atoms: _54  and  _56
REMARK   24  A    between atoms: _56  and  _57
REMARK   25  A    between atoms: _59  and  _61
REMARK   26  A    between atoms: _61  and  _62
REMARK   27  A    between atoms: _65  and  _67
REMARK   28  A    between atoms: _67  and  _68
REMARK   29  A    between atoms: _67  and  _70
REMARK   30  A    between atoms: _70  and  _71
REMARK   31  A    between atoms: _74  and  _76
REMARK   32  A    between atoms: _76  and  _77
REMARK   33  A    between atoms: _76  and  _79
REMARK   34  A    between atoms: _79  and  _80
REMARK   35  A    between atoms: _83  and  _85
REMARK   36  A    between atoms: _85  and  _86
REMARK   37  A    between atoms: _85  and  _88
REMARK   38  A    between atoms: _88  and  _89
REMARK   39  A    between atoms: _92  and  _94
REMARK   40  A    between atoms: _94  and  _95
REMARK   41  A    between atoms: _94  and  _97
REMARK   42  A    between atoms: _100  and  _102
REMARK   43  A    between atoms: _102  and  _103
REMARK   44  A    between atoms: _102  and  _105
REMARK   45  A    between atoms: _105  and  _106
REMARK   46  A    between atoms: _106  and  _107
REMARK   47  A    between atoms: _107  and  _108
REMARK   48  A    between atoms: _108  and  _109
REMARK   49  A    between atoms: _113  and  _115
REMARK   50  A    between atoms: _115  and  _116
REMARK   51  A    between atoms: _115  and  _118
REMARK   52  A    between atoms: _118  and  _119
REMARK   53  A    between atoms: _119  and  _120
REMARK   54  A    between atoms: _122  and  _124
REMARK   55  A    between atoms: _124  and  _125
REMARK   56  A    between atoms: _124  and  _127
REMARK   57  A    between atoms: _127  and  _128
REMARK   58  A    between atoms: _131  and  _133
REMARK   59  A    between atoms: _133  and  _134
REMARK   60  A    between atoms: _136  and  _138
REMARK   61  A    between atoms: _138  and  _139
REMARK   62  A    between atoms: _141  and  _143
REMARK   63  A    between atoms: _143  and  _144
REMARK   64  A    between atoms: _143  and  _146
REMARK   65  A    between atoms: _146  and  _147
REMARK   66  A    between atoms: _150  and  _152
REMARK   67  A    between atoms: _152  and  _153
REMARK   68  A    between atoms: _155  and  _157
REMARK   69  A    between atoms: _157  and  _158
REMARK   70  A    between atoms: _160  and  _162
REMARK   71  A    between atoms: _162  and  _163
REMARK   72  A    between atoms: _162  and  _165
REMARK   73  A    between atoms: _165  and  _166
REMARK   74  A    between atoms: _172  and  _174
REMARK   75  A    between atoms: _174  and  _175
REMARK   76  A    between atoms: _174  and  _177
REMARK   77  A    between atoms: _177  and  _178
REMARK   78  A    between atoms: _181  and  _183
REMARK   79  A    between atoms: _183  and  _184
REMARK   80  A    between atoms: _183  and  _186
REMARK   81  A    between atoms: _189  and  _191
REMARK   82  A    between atoms: _191  and  _192
REMARK   83  A    between atoms: _191  and  _194
REMARK   84  A    between atoms: _194  and  _195
REMARK   85  A    between atoms: _199  and  _200
REMARK   86  A    between atoms: _205  and  _207
REMARK   87  A    between atoms: _207  and  _208
REMARK   88  A    between atoms: _207  and  _210
REMARK   89  A    between atoms: _210  and  _211
REMARK   90  A    between atoms: _215  and  _216
REMARK   91  A    between atoms: _221  and  _223
REMARK   92  A    between atoms: _223  and  _224
REMARK   93  A    between atoms: _223  and  _226
REMARK   94  A    between atoms: _229  and  _231
REMARK   95  A    between atoms: _231  and  _232
REMARK   96  A    between atoms: _231  and  _234
REMARK   97  A    between atoms: _234  and  _235
REMARK   98  A    between atoms: _240  and  _242
REMARK   99  A    between atoms: _242  and  _243
REMARK  100  A    between atoms: _242  and  _245
REMARK  101  A    between atoms: _245  and  _246
REMARK  102  A    between atoms: _249  and  _251
REMARK  103  A    between atoms: _251  and  _252
REMARK  104  A    between atoms: _251  and  _254
REMARK  105  A    between atoms: _254  and  _255
REMARK  106  A    between atoms: _258  and  _260
REMARK  107  A    between atoms: _260  and  _261
REMARK  108  A    between atoms: _263  and  _265
REMARK  109  A    between atoms: _265  and  _266
REMARK  110  A    between atoms: _265  and  _268
REMARK  111  A    between atoms: _269  and  _270
REMARK  112  A    between atoms: _270  and  _271
REMARK  113  A    between atoms: _280  and  _282
REMARK  114  A    between atoms: _282  and  _283
REMARK  115  A    between atoms: _282  and  _285
REMARK  116  A    between atoms: _285  and  _286
REMARK  117  A    between atoms: _291  and  _293
REMARK  118  A    between atoms: _293  and  _294
REMARK  119  A    between atoms: _293  and  _296
REMARK  120  A    between atoms: _296  and  _297
REMARK  121  A    between atoms: _297  and  _298
REMARK  122  A    between atoms: _298  and  _299
REMARK  123  A    between atoms: _308  and  _310
REMARK  124  A    between atoms: _310  and  _311
REMARK  125  A    between atoms: _310  and  _313
REMARK  126  A    between atoms: _313  and  _314
REMARK  127  A    between atoms: _317  and  _319
REMARK  128  A    between atoms: _319  and  _320
REMARK  129  A    between atoms: _319  and  _322
REMARK  130  A    between atoms: _322  and  _323
REMARK  131  A    between atoms: _326  and  _328
REMARK  132  A    between atoms: _328  and  _329
REMARK  133  A    between atoms: _328  and  _331
REMARK  134  A    between atoms: _331  and  _332
REMARK  135  A    between atoms: _335  and  _337
REMARK  136  A    between atoms: _337  and  _338
REMARK  137  A    between atoms: _337  and  _340
REMARK  138  A    between atoms: _340  and  _341
REMARK  139  A    between atoms: _344  and  _346
REMARK  140  A    between atoms: _346  and  _347
REMARK  141  A    between atoms: _349  and  _351
REMARK  142  A    between atoms: _351  and  _352
REMARK  143  A    between atoms: _355  and  _357
REMARK  144  A    between atoms: _357  and  _358
REMARK  145  A    between atoms: _357  and  _360
REMARK  146  A    between atoms: _360  and  _361
REMARK  147  A    between atoms: _364  and  _366
REMARK  148  A    between atoms: _366  and  _367
REMARK  149  A    between atoms: _366  and  _369
REMARK  150  A    between atoms: _369  and  _370
REMARK  151  A    between atoms: _373  and  _375
REMARK  152  A    between atoms: _375  and  _376
REMARK  153  A    between atoms: _375  and  _378
REMARK  154  A    between atoms: _378  and  _379
REMARK  155  A    between atoms: _382  and  _384
REMARK  156  A    between atoms: _384  and  _385
REMARK  157  A    between atoms: _384  and  _387
REMARK  158  A    between atoms: _390  and  _392
REMARK  159  A    between atoms: _392  and  _393
REMARK  160  A    between atoms: _392  and  _395
REMARK  161  A    between atoms: _395  and  _396
REMARK  162  A    between atoms: _396  and  _397
REMARK  163  A    between atoms: _397  and  _398
REMARK  164  A    between atoms: _398  and  _399
REMARK  165  A    between atoms: _403  and  _405
REMARK  166  A    between atoms: _405  and  _406
REMARK  167  A    between atoms: _405  and  _408
REMARK  168  A    between atoms: _408  and  _409
REMARK  169  A    between atoms: _409  and  _410
REMARK  170  A    between atoms: _412  and  _414
REMARK  171  A    between atoms: _414  and  _415
REMARK  172  A    between atoms: _414  and  _417
REMARK  173  A    between atoms: _417  and  _418
REMARK  174  A    between atoms: _421  and  _423
REMARK  175  A    between atoms: _423  and  _424
REMARK  176  A    between atoms: _426  and  _428
REMARK  177  A    between atoms: _428  and  _429
REMARK  178  A    between atoms: _431  and  _433
REMARK  179  A    between atoms: _433  and  _434
REMARK  180  A    between atoms: _433  and  _436
REMARK  181  A    between atoms: _436  and  _437
REMARK  182  A    between atoms: _440  and  _442
REMARK  183  A    between atoms: _442  and  _443
REMARK  184  A    between atoms: _445  and  _447
REMARK  185  A    between atoms: _447  and  _448
REMARK  186  A    between atoms: _450  and  _452
REMARK  187  A    between atoms: _452  and  _453
REMARK  188  A    between atoms: _452  and  _455
REMARK  189  A    between atoms: _455  and  _456
REMARK  190  A    between atoms: _462  and  _464
REMARK  191  A    between atoms: _464  and  _465
REMARK  192  A    between atoms: _464  and  _467
REMARK  193  A    between atoms: _467  and  _468
REMARK  194  A    between atoms: _471  and  _473
REMARK  195  A    between atoms: _473  and  _474
REMARK  196  A    between atoms: _473  and  _476
REMARK  197  A    between atoms: _476  and  _477
REMARK  198  A    between atoms: _480  and  _482
REMARK  199  A    between atoms: _482  and  _483
REMARK  200  A    between atoms: _482  and  _485
REMARK  201  A    between atoms: _485  and  _486
REMARK  202  A    between atoms: _490  and  _491
REMARK  203  A    between atoms: _496  and  _498
REMARK  204  A    between atoms: _498  and  _499
REMARK  205  A    between atoms: _498  and  _501
REMARK  206  A    between atoms: _504  and  _506
REMARK  207  A    between atoms: _506  and  _507
REMARK  208  A    between atoms: _506  and  _509
REMARK  209  A    between atoms: _509  and  _510
REMARK  210  A    between atoms: _515  and  _517
REMARK  211  A    between atoms: _517  and  _518
REMARK  212  A    between atoms: _517  and  _520
REMARK  213  A    between atoms: _520  and  _521
REMARK  214  A    between atoms: _524  and  _526
REMARK  215  A    between atoms: _526  and  _527
REMARK  216  A    between atoms: _529  and  _531
REMARK  217  A    between atoms: _531  and  _532
REMARK  218  A    between atoms: _531  and  _534
REMARK  219  A    between atoms: _534  and  _535
REMARK  220  A    between atoms: _535  and  _536
REMARK  221  A    between atoms: _536  and  _537
REMARK  222  A    between atoms: _546  and  _548
REMARK  223  A    between atoms: _548  and  _549
REMARK  224  A    between atoms: _548  and  _551
REMARK  225  A    between atoms: _551  and  _552
REMARK                            x       y       z     vdW  Elec       q    Type
REMARK                         _______ _______ _______ _____ _____    ______ ____
ROOT
ATOM      1  NE  ARG A   1       6.000  20.362  15.284  0.00  0.00    -0.265 N 
ATOM      2  HE  ARG A   1       6.210  20.269  16.298  0.00  0.00    +0.259 HD
ATOM      3  CZ  ARG A   1       6.177  19.291  14.542  0.00  0.00    +0.342 C 
ATOM      4  NH2 ARG A   1       6.610  18.178  15.118  0.00  0.00    -0.292 N 
ATOM      5 HH21 ARG A   1       6.803  18.163  16.140  0.00  0.00    +0.255 HD
ATOM      6 HH22 ARG A   1       6.756  17.320  14.548  0.00  0.00    +0.255 HD
ATOM      7  NH1 ARG A   1       5.909  19.366  13.232  0.00  0.00    -0.292 N 
ATOM      8 HH11 ARG A   1       5.568  20.259  12.821  0.00  0.00    +0.255 HD
ATOM      9 HH12 ARG A   1       6.042  18.532  12.626  0.00  0.00    +0.255 HD
ENDROOT
BRANCH   1  10
ATOM     10  CD  ARG A   1       5.541  21.661  14.828  0.00  0.00    +0.174 C 
BRANCH  10  11
ATOM     11  CG  ARG A   1       5.040  22.456  16.003  0.00  0.00    +0.045 C 
BRANCH  11  12
ATOM     12  CB  ARG A   1       4.468  23.813  15.602  0.00  0.00    +0.029 C 
BRANCH  12  13
ATOM     13  CA  ARG A   1       3.907  24.607  16.793  0.00  0.00    +0.133 C 
BRANCH  13  14
ATOM     14  N   ARG A   1       2.701  23.988  17.300  0.00  0.00    -0.239 NA
ATOM     15  H   ARG A   1       2.344  23.128  16.837  0.00  0.00    +0.142 HD
ENDBRANCH  13  14
BRANCH  13  16
ATOM     16  C   ARG A   1       3.618  26.030  16.327  0.00  0.00    +0.224 C 
ATOM     17  O   ARG A   1       2.632  26.228  15.601  0.00  0.00    -0.287 OA
ENDBRANCH  13  16
ENDBRANCH  12  13
ENDBRANCH  11  12
ENDBRANCH  10  11
ENDBRANCH   1  10
TORSDOF 6
REMARK  Name = ../refined-set-2016/4dfg/4dfg_pocket.pdb
REMARK  225 active torsions:
REMARK  status: ('A' for Active; 'I' for Inactive)
REMARK    1  A    between atoms: _1  and  _3
REMARK    2  A    between atoms: _3  and  _4
REMARK    3  A    between atoms: _3  and  _6
REMARK    4  A    between atoms: _6  and  _7
REMARK    5  A    between atoms: _7  and  _8
REMARK    6  A    between atoms: _8  and  _9
REMARK    7  A    between atoms: _18  and  _20
REMARK    8  A    between atoms: _20  and  _21
REMARK    9  A    between atoms: _20  and  _23
REMARK   10  A    between atoms: _23  and  _24
REMARK   11  A    between atoms: _27  and  _29
REMARK   12  A    between atoms: _29  and  _30
REMARK   13  A    between atoms: _29  and  _32
REMARK   14  A    between atoms: _32  and  _33
REMARK   15  A    between atoms: _36  and  _38
REMARK   16  A    between atoms: _38  and  _39
REMARK   17  A    between atoms: _38  and  _41
REMARK   18  A    between atoms: _41  and  _42
REMARK   19  A    between atoms: _45  and  _47
REMARK   20  A    between atoms: _47  and  _48
REMARK   21  A    between atoms: _47  and  _50
REMARK   22  A    between atoms: _50  and  _51
REMARK   23  A    between atoms: _54  and  _56
REMARK   24  A    between atoms: _56  and  _57
REMARK   25  A    between atoms: _59  and  _61
REMARK   26  A    between atoms: _61  and  _62
REMARK   27  A    between atoms: _65  and  _67
REMARK   28  A    between atoms: _67  and  _68
REMARK   29  A    between atoms: _67  and  _70
REMARK   30  A    between atoms: _70  and  _71
REMARK   31  A    between atoms: _74  and  _76
REMARK   32  A    between atoms: _76  and  _77
REMARK   33  A    between atoms: _76  and  _79
REMARK   34  A    between atoms: _79  and  _80
REMARK   35  A    between atoms: _83  and  _85
REMARK   36  A    between atoms: _85  and  _86
REMARK   37  A    between atoms: _85  and  _88
REMARK   38  A    between atoms: _88  and  _89
REMARK   39  A    between atoms: _92  and  _94
REMARK   40  A    between atoms: _94  and  _95
REMARK   41  A    between atoms: _94  and  _97
REMARK   42  A    between atoms: _100  and  _102
REMARK   43  A    between atoms: _102  and  _103
REMARK   44  A    between atoms: _102  and  _105
REMARK   45  A    between atoms: _105  and  _106
REMARK   46  A    between atoms: _106  and  _107
REMARK   47  A    between atoms: _107  and  _108
REMARK   48  A    between atoms: _108  and  _109
REMARK   49  A    between atoms: _113  and  _115
REMARK   50  A    between atoms: _115  and  _116
REMARK   51  A    between atoms: _115  and  _118
REMARK   52  A    between atoms: _118  and  _119
REMARK   53  A    between atoms: _119  and  _120
REMARK   54  A    between atoms: _122  and  _124
REMARK   55  A    between atoms: _124  and  _125
REMARK   56  A    between atoms: _124  and  _127
REMARK   57  A    between atoms: _127  and  _128
REMARK   58  A    between atoms: _131  and  _133
REMARK   59  A    between atoms: _133  and  _134
REMARK   60  A    between atoms: _136  and  _138
REMARK   61  A    between atoms: _138  and  _139
REMARK   62  A    between atoms: _141  and  _143
REMARK   63  A    between atoms: _143  and  _144
REMARK   64  A    between atoms: _143  and  _146
REMARK   65  A    between atoms: _146  and  _147
REMARK   66  A    between atoms: _150  and  _152
REMARK   67  A    between atoms: _152  and  _153
REMARK   68  A    between atoms: _155  and  _157
REMARK   69  A    between atoms: _157  and  _158
REMARK   70  A    between atoms: _160  and  _162
REMARK   71  A    between atoms: _162  and  _163
REMARK   72  A    between atoms: _162  and  _165
REMARK   73  A    between atoms: _165  and  _166
REMARK   74  A    between atoms: _172  and  _174
REMARK   75  A    between atoms: _174  and  _175
REMARK   76  A    between atoms: _174  and  _177
REMARK   77  A    between atoms: _177  and  _178
REMARK   78  A    between atoms: _181  and  _183
REMARK   79  A    between atoms: _183  and  _184
REMARK   80  A    between atoms: _183  and  _186
REMARK   81  A    between atoms: _189  and  _191
REMARK   82  A    between atoms: _191  and  _192
REMARK   83  A    between atoms: _191  and  _194
REMARK   84  A    between atoms: _194  and  _195
REMARK   85  A    between atoms: _199  and  _200
REMARK   86  A    between atoms: _205  and  _207
REMARK   87  A    between atoms: _207  and  _208
REMARK   88  A    between atoms: _207  and  _210
REMARK   89  A    between atoms: _210  and  _211
REMARK   90  A    between atoms: _215  and  _216
REMARK   91  A    between atoms: _221  and  _223
REMARK   92  A    between atoms: _223  and  _224
REMARK   93  A    between atoms: _223  and  _226
REMARK   94  A    between atoms: _229  and  _231
REMARK   95  A    between atoms: _231  and  _232
REMARK   96  A    between atoms: _231  and  _234
REMARK   97  A    between atoms: _234  and  _235
REMARK   98  A    between atoms: _240  and  _242
REMARK   99  A    between atoms: _242  and  _243
REMARK  100  A    between atoms: _242  and  _245
REMARK  101  A    between atoms: _245  and  _246
REMARK  102  A    between atoms: _249  and  _251
REMARK  103  A    between atoms: _251  and  _252
REMARK  104  A    between atoms: _251  and  _254
REMARK  105  A    between atoms: _254  and  _255
REMARK  106  A    between atoms: _258  and  _260
REMARK  107  A    between atoms: _260  and  _261
REMARK  108  A    between atoms: _263  and  _265
REMARK  109  A    between atoms: _265  and  _266
REMARK  110  A    between atoms: _265  and  _268
REMARK  111  A    between atoms: _269  and  _270
REMARK  112  A    between atoms: _270  and  _271
REMARK  113  A    between atoms: _280  and  _282
REMARK  114  A    between atoms: _282  and  _283
REMARK  115  A    between atoms: _282  and  _285
REMARK  116  A    between atoms: _285  and  _286
REMARK  117  A    between atoms: _291  and  _293
REMARK  118  A    between atoms: _293  and  _294
REMARK  119  A    between atoms: _293  and  _296
REMARK  120  A    between atoms: _296  and  _297
REMARK  121  A    between atoms: _297  and  _298
REMARK  122  A    between atoms: _298  and  _299
REMARK  123  A    between atoms: _308  and  _310
REMARK  124  A    between atoms: _310  and  _311
REMARK  125  A    between atoms: _310  and  _313
REMARK  126  A    between atoms: _313  and  _314
REMARK  127  A    between atoms: _317  and  _319
REMARK  128  A    between atoms: _319  and  _320
REMARK  129  A    between atoms: _319  and  _322
REMARK  130  A    between atoms: _322  and  _323
REMARK  131  A    between atoms: _326  and  _328
REMARK  132  A    between atoms: _328  and  _329
REMARK  133  A    between atoms: _328  and  _331
REMARK  134  A    between atoms: _331  and  _332
REMARK  135  A    between atoms: _335  and  _337
REMARK  136  A    between atoms: _337  and  _338
REMARK  137  A    between atoms: _337  and  _340
REMARK  138  A    between atoms: _340  and  _341
REMARK  139  A    between atoms: _344  and  _346
REMARK  140  A    between atoms: _346  and  _347
REMARK  141  A    between atoms: _349  and  _351
REMARK  142  A    between atoms: _351  and  _352
REMARK  143  A    between atoms: _355  and  _357
REMARK  144  A    between atoms: _357  and  _358
REMARK  145  A    between atoms: _357  and  _360
REMARK  146  A    between atoms: _360  and  _361
REMARK  147  A    between atoms: _364  and  _366
REMARK  148  A    between atoms: _366  and  _367
REMARK  149  A    between atoms: _366  and  _369
REMARK  150  A    between atoms: _369  and  _370
REMARK  151  A    between atoms: _373  and  _375
REMARK  152  A    between atoms: _375  and  _376
REMARK  153  A    between atoms: _375  and  _378
REMARK  154  A    between atoms: _378  and  _379
REMARK  155  A    between atoms: _382  and  _384
REMARK  156  A    between atoms: _384  and  _385
REMARK  157  A    between atoms: _384  and  _387
REMARK  158  A    between atoms: _390  and  _392
REMARK  159  A    between atoms: _392  and  _393
REMARK  160  A    between atoms: _392  and  _395
REMARK  161  A    between atoms: _395  and  _396
REMARK  162  A    between atoms: _396  and  _397
REMARK  163  A    between atoms: _397  and  _398
REMARK  164  A    between atoms: _398  and  _399
REMARK  165  A    between atoms: _403  and  _405
REMARK  166  A    between atoms: _405  and  _406
REMARK  167  A    between atoms: _405  and  _408
REMARK  168  A    between atoms: _408  and  _409
REMARK  169  A    between atoms: _409  and  _410
REMARK  170  A    between atoms: _412  and  _414
REMARK  171  A    between atoms: _414  and  _415
REMARK  172  A    between atoms: _414  and  _417
REMARK  173  A    between atoms: _417  and  _418
REMARK  174  A    between atoms: _421  and  _423
REMARK  175  A    between atoms: _423  and  _424
REMARK  176  A    between atoms: _426  and  _428
REMARK  177  A    between atoms: _428  and  _429
REMARK  178  A    between atoms: _431  and  _433
REMARK  179  A    between atoms: _433  and  _434
REMARK  180  A    between atoms: _433  and  _436
REMARK  181  A    between atoms: _436  and  _437
REMARK  182  A    between atoms: _440  and  _442
REMARK  183  A    between atoms: _442  and  _443
REMARK  184  A    between atoms: _445  and  _447
REMARK  185  A    between atoms: _447  and  _448
REMARK  186  A    between atoms: _450  and  _452
REMARK  187  A    between atoms: _452  and  _453
REMARK  188  A    between atoms: _452  and  _455
REMARK  189  A    between atoms: _455  and  _456
REMARK  190  A    between atoms: _462  and  _464
REMARK  191  A    between atoms: _464  and  _465
REMARK  192  A    between atoms: _464  and  _467
REMARK  193  A    between atoms: _467  and  _468
REMARK  194  A    between atoms: _471  and  _473
REMARK  195  A    between atoms: _473  and  _474
REMARK  196  A    between atoms: _473  and  _476
REMARK  197  A    between atoms: _476  and  _477
REMARK  198  A    between atoms: _480  and  _482
REMARK  199  A    between atoms: _482  and  _483
REMARK  200  A    between atoms: _482  and  _485
REMARK  201  A    between atoms: _485  and  _486
REMARK  202  A    between atoms: _490  and  _491
REMARK  203  A    between atoms: _496  and  _498
REMARK  204  A    between atoms: _498  and  _499
REMARK  205  A    between atoms: _498  and  _501
REMARK  206  A    between atoms: _504  and  _506
REMARK  207  A    between atoms: _506  and  _507
REMARK  208  A    between atoms: _506  and  _509
REMARK  209  A    between atoms: _509  and  _510
REMARK  210  A    between atoms: _515  and  _517
REMARK  211  A    between atoms: _517  and  _518
REMARK  212  A    between atoms: _517  and  _520
REMARK  213  A    between atoms: _520  and  _521
REMARK  214  A    between atoms: _524  and  _526
REMARK  215  A    between atoms: _526  and  _527
REMARK  216  A    between atoms: _529  and  _531
REMARK  217  A    between atoms: _531  and  _532
REMARK  218  A    between atoms: _531  and  _534
REMARK  219  A    between atoms: _534  and  _535
REMARK  220  A    between atoms: _535  and  _536
REMARK  221  A    between atoms: _536  and  _537
REMARK  222  A    between atoms: _546  and  _548
REMARK  223  A    between atoms: _548  and  _549
REMARK  224  A    between atoms: _548  and  _551
REMARK  225  A    between atoms: _551  and  _552
REMARK                            x       y       z     vdW  Elec       q    Type
REMARK                         _______ _______ _______ _____ _____    ______ ____
ROOT
ATOM      1  C   GLY A   5      16.948  28.162  19.798  0.00  0.00    +0.243 C 
ATOM      2  O   GLY A   5      18.012  27.543  19.927  0.00  0.00    -0.273 OA
ATOM      3  N   ALA A   6      16.667  28.889  18.714  0.00  0.00    -0.297 N 
ATOM      4  H   ALA A   6      15.755  29.388  18.676  0.00  0.00    +0.150 HD
ENDROOT
BRANCH   3   5
ATOM      5  CA  ALA A   6      17.583  29.019  17.571  0.00  0.00    +0.149 C 
ATOM      6  CB  ALA A   6      16.810  28.881  16.279  0.00  0.00    +0.031 C 
BRANCH   5   7
ATOM      7  C   ALA A   6      18.279  30.356  17.609  0.00  0.00    +0.241 C 
ATOM      8  O   ALA A   6      17.623  31.409  17.638  0.00  0.00    -0.273 OA
ATOM      9  N   ASP A   7      19.610  30.401  17.619  0.00  0.00    -0.297 N 
ATOM     10  H   ASP A   7      20.154  29.516  17.663  0.00  0.00    +0.150 HD
BRANCH   9  11
ATOM     11  CA  ASP A   7      20.303  31.661  17.570  0.00  0.00    +0.160 C 
BRANCH  11  12
ATOM     12  C   ASP A   7      20.130  32.354  16.229  0.00  0.00    +0.241 C 
ATOM     13  O   ASP A   7      20.075  33.602  16.155  0.00  0.00    -0.273 OA
ATOM     14  N   ASP A   8      20.108  31.565  15.172  0.00  0.00    -0.297 N 
ATOM     15  H   ASP A   8      20.109  30.535  15.313  0.00  0.00    +0.150 HD
BRANCH  14  16
ATOM     16  CA  ASP A   8      20.083  32.086  13.824  0.00  0.00    +0.160 C 
BRANCH  16  17
ATOM     17  C   ASP A   8      18.854  31.516  13.106  0.00  0.00    +0.241 C 
ATOM     18  O   ASP A   8      18.177  30.603  13.574  0.00  0.00    -0.273 OA
ATOM     19  N   THR A   9      18.589  32.079  11.956  0.00  0.00    -0.295 N 
ATOM     20  H   THR A   9      19.222  32.849  11.659  0.00  0.00    +0.150 HD
BRANCH  19  21
ATOM     21  CA  THR A   9      17.506  31.744  11.051  0.00  0.00    +0.176 C 
BRANCH  21  22
ATOM     22  C   THR A   9      18.016  30.809   9.975  0.00  0.00    +0.243 C 
ATOM     23  N   VAL A  10      17.367  29.647   9.812  0.00  0.00    -0.298 N 
ATOM     24  H   VAL A  10      16.490  29.480  10.345  0.00  0.00    +0.150 HD
ATOM     25  O   THR A   9      19.063  31.101   9.357  0.00  0.00    -0.273 OA
BRANCH  23  26
ATOM     26  CA  VAL A  10      17.850  28.621   8.919  0.00  0.00    +0.137 C 
BRANCH  26  27
ATOM     27  CB  VAL A  10      18.350  27.380   9.699  0.00  0.00    +0.026 C 
ATOM     28  CG2 VAL A  10      19.221  27.772  10.894  0.00  0.00    +0.002 C 
ATOM     29  CG1 VAL A  10      19.086  26.479   8.733  0.00  0.00    +0.002 C 
ENDBRANCH  26  27
BRANCH  26  30
ATOM     30  C   VAL A  10      16.672  28.204   8.019  0.00  0.00    +0.227 C 
ATOM     31  O   VAL A  10      15.609  27.816   8.514  0.00  0.00    -0.286 OA
ENDBRANCH  26  30
ENDBRANCH  23  26
ENDBRANCH  21  22
BRANCH  21  32
ATOM     32  CB  THR A   9      16.943  33.066  10.453  0.00  0.00    +0.137 C 
ATOM     33  CG2 THR A   9      15.920  32.812   9.390  0.00  0.00    +0.034 C 
BRANCH  32  34
ATOM     34  OG1 THR A   9      16.343  33.784  11.512  0.00  0.00    -0.382 OA
ATOM     35  HG1 THR A   9      17.023  33.977  12.205  0.00  0.00    +0.210 HD
ENDBRANCH  32  34
ENDBRANCH  21  32
ENDBRANCH  19  21
ENDBRANCH  16  17
BRANCH  16  36
ATOM     36  CB  ASP A   8      21.358  31.757  13.056  0.00  0.00    +0.143 C 
BRANCH  36  37
ATOM     37  CG  ASP A   8      22.681  32.191  13.631  0.00  0.00    +0.367 C 
ATOM     38  OD2 ASP A   8      22.727  33.043  14.530  0.00  0.00    -0.246 OA
ATOM     39  OD1 ASP A   8      23.752  31.662  13.221  0.00  0.00    -0.246 OA
ENDBRANCH  36  37
ENDBRANCH  16  36
ENDBRANCH  14  16
ENDBRANCH  11  12
BRANCH  11  40
ATOM     40  CB  ASP A   7      21.819  31.422  17.786  0.00  0.00    +0.143 C 
BRANCH  40  41
ATOM     41  CG  ASP A   7      22.192  30.778  19.112  0.00  0.00    +0.367 C 
ATOM     42  OD2 ASP A   7      21.504  30.927  20.121  0.00  0.00    -0.246 OA
ATOM     43  OD1 ASP A   7      23.306  30.170  19.141  0.00  0.00    -0.246 OA
ENDBRANCH  40  41
ENDBRANCH  11  40
ENDBRANCH   9  11
ENDBRANCH   5   7
ENDBRANCH   3   5
BRANCH   1  44
ATOM     44  CA  GLY A   5      15.935  28.148  20.902  0.00  0.00    +0.176 C 
BRANCH  44  47
ATOM     45  C   THR A   4      14.665  30.245  20.915  0.00  0.00    +0.243 C 
ATOM     46  O   THR A   4      15.595  30.835  21.458  0.00  0.00    -0.273 OA
ATOM     47  N   GLY A   5      14.744  28.947  20.652  0.00  0.00    -0.295 N 
ATOM     48  H   GLY A   5      13.911  28.475  20.246  0.00  0.00    +0.150 HD
BRANCH  45  49
ATOM     49  CA  THR A   4      13.398  31.001  20.560  0.00  0.00    +0.176 C 
BRANCH  49  51
ATOM     50  C   ASP A   3      12.989  30.116  18.312  0.00  0.00    +0.241 C 
ATOM     51  N   THR A   4      12.570  30.311  19.579  0.00  0.00    -0.295 N 
ATOM     52  H   THR A   4      11.633  29.960  19.863  0.00  0.00    +0.150 HD
ATOM     53  O   ASP A   3      14.089  30.494  17.902  0.00  0.00    -0.273 OA
BRANCH  50  54
ATOM     54  CA  ASP A   3      12.073  29.362  17.341  0.00  0.00    +0.160 C 
BRANCH  54  57
ATOM     55  C   LEU A   2       9.903  30.172  16.555  0.00  0.00    +0.241 C 
ATOM     56  O   LEU A   2       9.261  29.515  17.384  0.00  0.00    -0.273 OA
ATOM     57  N   ASP A   3      11.223  30.243  16.558  0.00  0.00    -0.297 N 
ATOM     58  H   ASP A   3      11.678  30.969  15.968  0.00  0.00    +0.150 HD
BRANCH  55  59
ATOM     59  CA  LEU A   2       9.182  30.887  15.421  0.00  0.00    +0.149 C 
BRANCH  59  61
ATOM     60  C   LEU A   1       9.362  29.207  13.694  0.00  0.00    +0.238 C 
ATOM     61  N   LEU A   2       8.618  29.890  14.542  0.00  0.00    -0.297 N 
ATOM     62  H   LEU A   2       7.595  29.705  14.579  0.00  0.00    +0.150 HD
ATOM     63  O   LEU A   1      10.547  29.470  13.495  0.00  0.00    -0.274 OA
BRANCH  60  64
ATOM     64  CA  LEU A   1       8.720  28.057  12.954  0.00  0.00    +0.145 C 
BRANCH  64  65
ATOM     65  N   LEU A   1       8.893  28.184  11.540  0.00  0.00    -0.238 NA
ATOM     66  H   LEU A   1       9.769  27.793  11.140  0.00  0.00    +0.142 HD
ENDBRANCH  64  65
BRANCH  64  67
ATOM     67  CB  LEU A   1       9.368  26.713  13.327  0.00  0.00    +0.026 C 
BRANCH  67  68
ATOM     68  CG  LEU A   1       9.267  26.159  14.692  0.00  0.00    +0.002 C 
ATOM     69  CD2 LEU A   1       7.834  25.785  14.980  0.00  0.00    +0.000 C 
ATOM     70  CD1 LEU A   1      10.184  24.917  14.788  0.00  0.00    +0.000 C 
ENDBRANCH  67  68
ENDBRANCH  64  67
ENDBRANCH  60  64
ENDBRANCH  59  61
BRANCH  59  71
ATOM     71  CB  LEU A   2       8.072  31.805  15.978  0.00  0.00    +0.029 C 
BRANCH  71  72
ATOM     72  CG  LEU A   2       7.247  32.560  14.949  0.00  0.00    +0.002 C 
ATOM     73  CD2 LEU A   2       6.285  33.453  15.734  0.00  0.00    +0.000 C 
ATOM     74  CD1 LEU A   2       8.128  33.382  14.042  0.00  0.00    +0.000 C 
ENDBRANCH  71  72
ENDBRANCH  59  71
ENDBRANCH  55  59
ENDBRANCH  54  57
BRANCH  54  75
ATOM     75  CB  ASP A   3      12.871  28.514  16.361  0.00  0.00    +0.143 C 
BRANCH  75  76
ATOM     76  CG  ASP A   3      13.516  27.329  17.048  0.00  0.00    +0.367 C 
ATOM     77  OD2 ASP A   3      13.541  27.351  18.297  0.00  0.00    -0.246 OA
ATOM     78  OD1 ASP A   3      13.995  26.411  16.371  0.00  0.00    -0.246 OA
ENDBRANCH  75  76
ENDBRANCH  54  75
ENDBRANCH  50  54
ENDBRANCH  49  51
BRANCH  49  79
ATOM     79  CB  THR A   4      12.619  31.291  21.829  0.00  0.00    +0.137 C 
ATOM     80  CG2 THR A   4      11.375  32.143  21.559  0.00  0.00    +0.034 C 
BRANCH  79  81
ATOM     81  OG1 THR A   4      12.164  30.075  22.409  0.00  0.00    -0.382 OA
ATOM     82  HG1 THR A   4      12.942  29.503  22.627  0.00  0.00    +0.210 HD
ENDBRANCH  79  81
ENDBRANCH  49  79
ENDBRANCH  45  49
ENDBRANCH  44  47
ENDBRANCH   1  44
TORSDOF 35
REMARK  Name = ../refined-set-2016/4dfg/4dfg_pocket.pdb
REMARK  225 active torsions:
REMARK  status: ('A' for Active; 'I' for Inactive)
REMARK    1  A    between atoms: _1  and  _3
REMARK    2  A    between atoms: _3  and  _4
REMARK    3  A    between atoms: _3  and  _6
REMARK    4  A    between atoms: _6  and  _7
REMARK    5  A    between atoms: _7  and  _8
REMARK    6  A    between atoms: _8  and  _9
REMARK    7  A    between atoms: _18  and  _20
REMARK    8  A    between atoms: _20  and  _21
REMARK    9  A    between atoms: _20  and  _23
REMARK   10  A    between atoms: _23  and  _24
REMARK   11  A    between atoms: _27  and  _29
REMARK   12  A    between atoms: _29  and  _30
REMARK   13  A    between atoms: _29  and  _32
REMARK   14  A    between atoms: _32  and  _33
REMARK   15  A    between atoms: _36  and  _38
REMARK   16  A    between atoms: _38  and  _39
REMARK   17  A    between atoms: _38  and  _41
REMARK   18  A    between atoms: _41  and  _42
REMARK   19  A    between atoms: _45  and  _47
REMARK   20  A    between atoms: _47  and  _48
REMARK   21  A    between atoms: _47  and  _50
REMARK   22  A    between atoms: _50  and  _51
REMARK   23  A    between atoms: _54  and  _56
REMARK   24  A    between atoms: _56  and  _57
REMARK   25  A    between atoms: _59  and  _61
REMARK   26  A    between atoms: _61  and  _62
REMARK   27  A    between atoms: _65  and  _67
REMARK   28  A    between atoms: _67  and  _68
REMARK   29  A    between atoms: _67  and  _70
REMARK   30  A    between atoms: _70  and  _71
REMARK   31  A    between atoms: _74  and  _76
REMARK   32  A    between atoms: _76  and  _77
REMARK   33  A    between atoms: _76  and  _79
REMARK   34  A    between atoms: _79  and  _80
REMARK   35  A    between atoms: _83  and  _85
REMARK   36  A    between atoms: _85  and  _86
REMARK   37  A    between atoms: _85  and  _88
REMARK   38  A    between atoms: _88  and  _89
REMARK   39  A    between atoms: _92  and  _94
REMARK   40  A    between atoms: _94  and  _95
REMARK   41  A    between atoms: _94  and  _97
REMARK   42  A    between atoms: _100  and  _102
REMARK   43  A    between atoms: _102  and  _103
REMARK   44  A    between atoms: _102  and  _105
REMARK   45  A    between atoms: _105  and  _106
REMARK   46  A    between atoms: _106  and  _107
REMARK   47  A    between atoms: _107  and  _108
REMARK   48  A    between atoms: _108  and  _109
REMARK   49  A    between atoms: _113  and  _115
REMARK   50  A    between atoms: _115  and  _116
REMARK   51  A    between atoms: _115  and  _118
REMARK   52  A    between atoms: _118  and  _119
REMARK   53  A    between atoms: _119  and  _120
REMARK   54  A    between atoms: _122  and  _124
REMARK   55  A    between atoms: _124  and  _125
REMARK   56  A    between atoms: _124  and  _127
REMARK   57  A    between atoms: _127  and  _128
REMARK   58  A    between atoms: _131  and  _133
REMARK   59  A    between atoms: _133  and  _134
REMARK   60  A    between atoms: _136  and  _138
REMARK   61  A    between atoms: _138  and  _139
REMARK   62  A    between atoms: _141  and  _143
REMARK   63  A    between atoms: _143  and  _144
REMARK   64  A    between atoms: _143  and  _146
REMARK   65  A    between atoms: _146  and  _147
REMARK   66  A    between atoms: _150  and  _152
REMARK   67  A    between atoms: _152  and  _153
REMARK   68  A    between atoms: _155  and  _157
REMARK   69  A    between atoms: _157  and  _158
REMARK   70  A    between atoms: _160  and  _162
REMARK   71  A    between atoms: _162  and  _163
REMARK   72  A    between atoms: _162  and  _165
REMARK   73  A    between atoms: _165  and  _166
REMARK   74  A    between atoms: _172  and  _174
REMARK   75  A    between atoms: _174  and  _175
REMARK   76  A    between atoms: _174  and  _177
REMARK   77  A    between atoms: _177  and  _178
REMARK   78  A    between atoms: _181  and  _183
REMARK   79  A    between atoms: _183  and  _184
REMARK   80  A    between atoms: _183  and  _186
REMARK   81  A    between atoms: _189  and  _191
REMARK   82  A    between atoms: _191  and  _192
REMARK   83  A    between atoms: _191  and  _194
REMARK   84  A    between atoms: _194  and  _195
REMARK   85  A    between atoms: _199  and  _200
REMARK   86  A    between atoms: _205  and  _207
REMARK   87  A    between atoms: _207  and  _208
REMARK   88  A    between atoms: _207  and  _210
REMARK   89  A    between atoms: _210  and  _211
REMARK   90  A    between atoms: _215  and  _216
REMARK   91  A    between atoms: _221  and  _223
REMARK   92  A    between atoms: _223  and  _224
REMARK   93  A    between atoms: _223  and  _226
REMARK   94  A    between atoms: _229  and  _231
REMARK   95  A    between atoms: _231  and  _232
REMARK   96  A    between atoms: _231  and  _234
REMARK   97  A    between atoms: _234  and  _235
REMARK   98  A    between atoms: _240  and  _242
REMARK   99  A    between atoms: _242  and  _243
REMARK  100  A    between atoms: _242  and  _245
REMARK  101  A    between atoms: _245  and  _246
REMARK  102  A    between atoms: _249  and  _251
REMARK  103  A    between atoms: _251  and  _252
REMARK  104  A    between atoms: _251  and  _254
REMARK  105  A    between atoms: _254  and  _255
REMARK  106  A    between atoms: _258  and  _260
REMARK  107  A    between atoms: _260  and  _261
REMARK  108  A    between atoms: _263  and  _265
REMARK  109  A    between atoms: _265  and  _266
REMARK  110  A    between atoms: _265  and  _268
REMARK  111  A    between atoms: _269  and  _270
REMARK  112  A    between atoms: _270  and  _271
REMARK  113  A    between atoms: _280  and  _282
REMARK  114  A    between atoms: _282  and  _283
REMARK  115  A    between atoms: _282  and  _285
REMARK  116  A    between atoms: _285  and  _286
REMARK  117  A    between atoms: _291  and  _293
REMARK  118  A    between atoms: _293  and  _294
REMARK  119  A    between atoms: _293  and  _296
REMARK  120  A    between atoms: _296  and  _297
REMARK  121  A    between atoms: _297  and  _298
REMARK  122  A    between atoms: _298  and  _299
REMARK  123  A    between atoms: _308  and  _310
REMARK  124  A    between atoms: _310  and  _311
REMARK  125  A    between atoms: _310  and  _313
REMARK  126  A    between atoms: _313  and  _314
REMARK  127  A    between atoms: _317  and  _319
REMARK  128  A    between atoms: _319  and  _320
REMARK  129  A    between atoms: _319  and  _322
REMARK  130  A    between atoms: _322  and  _323
REMARK  131  A    between atoms: _326  and  _328
REMARK  132  A    between atoms: _328  and  _329
REMARK  133  A    between atoms: _328  and  _331
REMARK  134  A    between atoms: _331  and  _332
REMARK  135  A    between atoms: _335  and  _337
REMARK  136  A    between atoms: _337  and  _338
REMARK  137  A    between atoms: _337  and  _340
REMARK  138  A    between atoms: _340  and  _341
REMARK  139  A    between atoms: _344  and  _346
REMARK  140  A    between atoms: _346  and  _347
REMARK  141  A    between atoms: _349  and  _351
REMARK  142  A    between atoms: _351  and  _352
REMARK  143  A    between atoms: _355  and  _357
REMARK  144  A    between atoms: _357  and  _358
REMARK  145  A    between atoms: _357  and  _360
REMARK  146  A    between atoms: _360  and  _361
REMARK  147  A    between atoms: _364  and  _366
REMARK  148  A    between atoms: _366  and  _367
REMARK  149  A    between atoms: _366  and  _369
REMARK  150  A    between atoms: _369  and  _370
REMARK  151  A    between atoms: _373  and  _375
REMARK  152  A    between atoms: _375  and  _376
REMARK  153  A    between atoms: _375  and  _378
REMARK  154  A    between atoms: _378  and  _379
REMARK  155  A    between atoms: _382  and  _384
REMARK  156  A    between atoms: _384  and  _385
REMARK  157  A    between atoms: _384  and  _387
REMARK  158  A    between atoms: _390  and  _392
REMARK  159  A    between atoms: _392  and  _393
REMARK  160  A    between atoms: _392  and  _395
REMARK  161  A    between atoms: _395  and  _396
REMARK  162  A    between atoms: _396  and  _397
REMARK  163  A    between atoms: _397  and  _398
REMARK  164  A    between atoms: _398  and  _399
REMARK  165  A    between atoms: _403  and  _405
REMARK  166  A    between atoms: _405  and  _406
REMARK  167  A    between atoms: _405  and  _408
REMARK  168  A    between atoms: _408  and  _409
REMARK  169  A    between atoms: _409  and  _410
REMARK  170  A    between atoms: _412  and  _414
REMARK  171  A    between atoms: _414  and  _415
REMARK  172  A    between atoms: _414  and  _417
REMARK  173  A    between atoms: _417  and  _418
REMARK  174  A    between atoms: _421  and  _423
REMARK  175  A    between atoms: _423  and  _424
REMARK  176  A    between atoms: _426  and  _428
REMARK  177  A    between atoms: _428  and  _429
REMARK  178  A    between atoms: _431  and  _433
REMARK  179  A    between atoms: _433  and  _434
REMARK  180  A    between atoms: _433  and  _436
REMARK  181  A    between atoms: _436  and  _437
REMARK  182  A    between atoms: _440  and  _442
REMARK  183  A    between atoms: _442  and  _443
REMARK  184  A    between atoms: _445  and  _447
REMARK  185  A    between atoms: _447  and  _448
REMARK  186  A    between atoms: _450  and  _452
REMARK  187  A    between atoms: _452  and  _453
REMARK  188  A    between atoms: _452  and  _455
REMARK  189  A    between atoms: _455  and  _456
REMARK  190  A    between atoms: _462  and  _464
REMARK  191  A    between atoms: _464  and  _465
REMARK  192  A    between atoms: _464  and  _467
REMARK  193  A    between atoms: _467  and  _468
REMARK  194  A    between atoms: _471  and  _473
REMARK  195  A    between atoms: _473  and  _474
REMARK  196  A    between atoms: _473  and  _476
REMARK  197  A    between atoms: _476  and  _477
REMARK  198  A    between atoms: _480  and  _482
REMARK  199  A    between atoms: _482  and  _483
REMARK  200  A    between atoms: _482  and  _485
REMARK  201  A    between atoms: _485  and  _486
REMARK  202  A    between atoms: _490  and  _491
REMARK  203  A    between atoms: _496  and  _498
REMARK  204  A    between atoms: _498  and  _499
REMARK  205  A    between atoms: _498  and  _501
REMARK  206  A    between atoms: _504  and  _506
REMARK  207  A    between atoms: _506  and  _507
REMARK  208  A    between atoms: _506  and  _509
REMARK  209  A    between atoms: _509  and  _510
REMARK  210  A    between atoms: _515  and  _517
REMARK  211  A    between atoms: _517  and  _518
REMARK  212  A    between atoms: _517  and  _520
REMARK  213  A    between atoms: _520  and  _521
REMARK  214  A    between atoms: _524  and  _526
REMARK  215  A    between atoms: _526  and  _527
REMARK  216  A    between atoms: _529  and  _531
REMARK  217  A    between atoms: _531  and  _532
REMARK  218  A    between atoms: _531  and  _534
REMARK  219  A    between atoms: _534  and  _535
REMARK  220  A    between atoms: _535  and  _536
REMARK  221  A    between atoms: _536  and  _537
REMARK  222  A    between atoms: _546  and  _548
REMARK  223  A    between atoms: _548  and  _549
REMARK  224  A    between atoms: _548  and  _551
REMARK  225  A    between atoms: _551  and  _552
REMARK                            x       y       z     vdW  Elec       q    Type
REMARK                         _______ _______ _______ _____ _____    ______ ____
ROOT
ATOM      1  C   GLY A   5      21.797  19.502  17.484  0.00  0.00    +0.243 C 
ATOM      2  N   ILE A   6      20.571  19.149  17.808  0.00  0.00    -0.297 N 
ATOM      3  H   ILE A   6      19.793  19.837  17.868  0.00  0.00    +0.150 HD
ATOM      4  O   GLY A   5      22.789  18.777  17.467  0.00  0.00    -0.273 OA
ENDROOT
BRANCH   1   5
ATOM      5  CA  GLY A   5      22.009  20.979  17.117  0.00  0.00    +0.176 C 
BRANCH   5   8
ATOM      6  C   GLY A   4      23.775  22.199  16.054  0.00  0.00    +0.243 C 
ATOM      7  O   GLY A   4      23.434  23.200  16.668  0.00  0.00    -0.273 OA
ATOM      8  N   GLY A   5      23.135  21.069  16.238  0.00  0.00    -0.295 N 
ATOM      9  H   GLY A   5      23.454  20.218  15.733  0.00  0.00    +0.150 HD
BRANCH   6  10
ATOM     10  CA  GLY A   4      24.943  22.131  15.135  0.00  0.00    +0.176 C 
BRANCH  10  12
ATOM     11  C   ILE A   3      25.308  23.453  13.187  0.00  0.00    +0.241 C 
ATOM     12  N   GLY A   4      25.193  23.406  14.492  0.00  0.00    -0.295 N 
ATOM     13  H   GLY A   4      25.280  24.273  15.059  0.00  0.00    +0.150 HD
ATOM     14  O   ILE A   3      25.114  22.480  12.466  0.00  0.00    -0.273 OA
BRANCH  11  15
ATOM     15  CA  ILE A   3      25.725  24.802  12.602  0.00  0.00    +0.149 C 
BRANCH  15  18
ATOM     16  C   MET A   2      27.759  25.118  11.278  0.00  0.00    +0.241 C 
ATOM     17  O   MET A   2      28.240  25.905  12.078  0.00  0.00    -0.273 OA
ATOM     18  N   ILE A   3      26.567  24.576  11.434  0.00  0.00    -0.297 N 
ATOM     19  H   ILE A   3      26.208  23.953  10.682  0.00  0.00    +0.150 HD
BRANCH  16  20
ATOM     20  CA  MET A   2      28.595  24.738  10.063  0.00  0.00    +0.149 C 
BRANCH  20  22
ATOM     21  C   LYS A   1      28.736  26.418   8.299  0.00  0.00    +0.238 C 
ATOM     22  N   MET A   2      29.091  25.964   9.474  0.00  0.00    -0.297 N 
ATOM     23  H   MET A   2      29.776  26.522  10.022  0.00  0.00    +0.150 HD
ATOM     24  O   LYS A   1      28.016  25.748   7.528  0.00  0.00    -0.274 OA
BRANCH  21  25
ATOM     25  CA  LYS A   1      29.223  27.782   7.881  0.00  0.00    +0.145 C 
BRANCH  25  26
ATOM     26  N   LYS A   1      29.272  27.840   6.426  0.00  0.00    -0.238 NA
ATOM     27  H   LYS A   1      28.590  27.260   5.896  0.00  0.00    +0.142 HD
ENDBRANCH  25  26
BRANCH  25  28
ATOM     28  CB  LYS A   1      28.228  28.853   8.377  0.00  0.00    +0.026 C 
BRANCH  28  29
ATOM     29  CG  LYS A   1      28.108  29.079   9.851  0.00  0.00    -0.000 C 
BRANCH  29  30
ATOM     30  CD  LYS A   1      27.119  30.172  10.157  0.00  0.00    -0.024 C 
BRANCH  30  31
ATOM     31  CE  LYS A   1      26.796  30.402  11.630  0.00  0.00    -0.086 C 
BRANCH  31  32
ATOM     32  NZ  LYS A   1      27.915  31.108  12.235  0.00  0.00    +0.380 N 
ATOM     33  HZ1 LYS A   1      27.714  31.275  13.242  0.00  0.00    -0.089 HD
ATOM     34  HZ2 LYS A   1      28.777  30.533  12.143  0.00  0.00    -0.089 HD
ATOM     35  HZ3 LYS A   1      28.051  32.019  11.752  0.00  0.00    -0.089 HD
ENDBRANCH  31  32
ENDBRANCH  30  31
ENDBRANCH  29  30
ENDBRANCH  28  29
ENDBRANCH  25  28
ENDBRANCH  21  25
ENDBRANCH  20  22
BRANCH  20  36
ATOM     36  CB  MET A   2      29.724  23.814  10.550  0.00  0.00    +0.041 C 
BRANCH  36  37
ATOM     37  CG  MET A   2      30.494  23.112   9.449  0.00  0.00    +0.060 C 
BRANCH  37  38
ATOM     38  SD  MET A   2      29.523  21.754   8.741  0.00  0.00    -0.139 S 
ATOM     39  CE  MET A   2      30.182  20.378   9.709  0.00  0.00    +0.069 C 
ENDBRANCH  37  38
ENDBRANCH  36  37
ENDBRANCH  20  36
ENDBRANCH  16  20
ENDBRANCH  15  18
BRANCH  15  40
ATOM     40  CB  ILE A   3      24.525  25.704  12.339  0.00  0.00    +0.027 C 
ATOM     41  CG2 ILE A   3      24.950  27.108  11.948  0.00  0.00    +0.002 C 
BRANCH  40  42
ATOM     42  CG1 ILE A   3      23.584  25.067  11.313  0.00  0.00    +0.002 C 
ATOM     43  CD1 ILE A   3      22.287  25.848  11.181  0.00  0.00    +0.000 C 
ENDBRANCH  40  42
ENDBRANCH  15  40
ENDBRANCH  11  15
ENDBRANCH  10  12
ENDBRANCH   6  10
ENDBRANCH   5   8
ENDBRANCH   1   5
BRANCH   2  44
ATOM     44  CA  ILE A   6      20.378  17.738  18.076  0.00  0.00    +0.149 C 
BRANCH  44  45
ATOM     45  C   ILE A   6      20.623  16.982  16.796  0.00  0.00    +0.241 C 
ATOM     46  N   GLY A   7      21.362  15.878  16.879  0.00  0.00    -0.295 N 
ATOM     47  H   GLY A   7      21.698  15.582  17.817  0.00  0.00    +0.150 HD
ATOM     48  O   ILE A   6      20.131  17.395  15.778  0.00  0.00    -0.273 OA
BRANCH  46  49
ATOM     49  CA  GLY A   7      21.718  15.080  15.754  0.00  0.00    +0.176 C 
BRANCH  49  50
ATOM     50  C   GLY A   7      23.089  15.439  15.223  0.00  0.00    +0.243 C 
ATOM     51  N   GLY A   8      23.644  16.597  15.507  0.00  0.00    -0.295 N 
ATOM     52  H   GLY A   8      23.138  17.261  16.127  0.00  0.00    +0.150 HD
ATOM     53  O   GLY A   7      23.659  14.620  14.547  0.00  0.00    -0.273 OA
BRANCH  51  54
ATOM     54  CA  GLY A   8      24.926  16.969  14.987  0.00  0.00    +0.176 C 
BRANCH  54  55
ATOM     55  C   GLY A   8      24.846  18.189  14.086  0.00  0.00    +0.243 C 
ATOM     56  O   GLY A   8      23.979  19.035  14.225  0.00  0.00    -0.273 OA
ATOM     57  N   PHE A   9      25.794  18.315  13.165  0.00  0.00    -0.297 N 
ATOM     58  H   PHE A   9      26.412  17.499  12.979  0.00  0.00    +0.150 HD
BRANCH  57  59
ATOM     59  CA  PHE A   9      26.013  19.527  12.406  0.00  0.00    +0.153 C 
BRANCH  59  60
ATOM     60  C   PHE A   9      25.579  19.366  10.964  0.00  0.00    +0.241 C 
ATOM     61  O   PHE A   9      25.622  18.259  10.408  0.00  0.00    -0.273 OA
ATOM     62  N   ILE A  10      25.200  20.458  10.356  0.00  0.00    -0.298 N 
ATOM     63  H   ILE A  10      25.074  21.313  10.935  0.00  0.00    +0.150 HD
BRANCH  62  64
ATOM     64  CA  ILE A  10      24.941  20.566   8.927  0.00  0.00    +0.137 C 
BRANCH  64  65
ATOM     65  CB  ILE A  10      23.458  20.742   8.567  0.00  0.00    +0.026 C 
ATOM     66  CG2 ILE A  10      22.677  19.476   8.938  0.00  0.00    +0.002 C 
BRANCH  65  67
ATOM     67  CG1 ILE A  10      22.805  21.999   9.129  0.00  0.00    +0.002 C 
ATOM     68  CD1 ILE A  10      21.445  22.283   8.508  0.00  0.00    +0.000 C 
ENDBRANCH  65  67
ENDBRANCH  64  65
BRANCH  64  69
ATOM     69  C   ILE A  10      25.718  21.763   8.376  0.00  0.00    +0.227 C 
ATOM     70  O   ILE A  10      25.989  22.730   9.088  0.00  0.00    -0.286 OA
ENDBRANCH  64  69
ENDBRANCH  62  64
ENDBRANCH  59  60
BRANCH  59  71
ATOM     71  CB  PHE A   9      27.489  19.929  12.400  0.00  0.00    +0.055 C 
BRANCH  71  72
ATOM     72  CG  PHE A   9      27.939  20.533  13.710  0.00  0.00    -0.020 A 
ATOM     73  CD2 PHE A   9      28.132  19.751  14.811  0.00  0.00    -0.004 A 
ATOM     74  CE2 PHE A   9      28.528  20.351  15.984  0.00  0.00    -0.000 A 
ATOM     75  CZ  PHE A   9      28.720  21.699  16.061  0.00  0.00    -0.000 A 
ATOM     76  CE1 PHE A   9      28.543  22.504  14.957  0.00  0.00    -0.000 A 
ATOM     77  CD1 PHE A   9      28.168  21.885  13.779  0.00  0.00    -0.004 A 
ENDBRANCH  71  72
ENDBRANCH  59  71
ENDBRANCH  57  59
ENDBRANCH  54  55
ENDBRANCH  51  54
ENDBRANCH  49  50
ENDBRANCH  46  49
ENDBRANCH  44  45
BRANCH  44  78
ATOM     78  CB  ILE A   6      19.003  17.522  18.687  0.00  0.00    +0.027 C 
ATOM     79  CG2 ILE A   6      18.616  16.045  18.704  0.00  0.00    +0.002 C 
BRANCH  78  80
ATOM     80  CG1 ILE A   6      18.971  18.055  20.125  0.00  0.00    +0.002 C 
ATOM     81  CD1 ILE A   6      17.580  18.148  20.710  0.00  0.00    +0.000 C 
ENDBRANCH  78  80
ENDBRANCH  44  78
ENDBRANCH   2  44
TORSDOF 36
REMARK  Name = ../refined-set-2016/4dfg/4dfg_pocket.pdb
REMARK  225 active torsions:
REMARK  status: ('A' for Active; 'I' for Inactive)
REMARK    1  A    between atoms: _1  and  _3
REMARK    2  A    between atoms: _3  and  _4
REMARK    3  A    between atoms: _3  and  _6
REMARK    4  A    between atoms: _6  and  _7
REMARK    5  A    between atoms: _7  and  _8
REMARK    6  A    between atoms: _8  and  _9
REMARK    7  A    between atoms: _18  and  _20
REMARK    8  A    between atoms: _20  and  _21
REMARK    9  A    between atoms: _20  and  _23
REMARK   10  A    between atoms: _23  and  _24
REMARK   11  A    between atoms: _27  and  _29
REMARK   12  A    between atoms: _29  and  _30
REMARK   13  A    between atoms: _29  and  _32
REMARK   14  A    between atoms: _32  and  _33
REMARK   15  A    between atoms: _36  and  _38
REMARK   16  A    between atoms: _38  and  _39
REMARK   17  A    between atoms: _38  and  _41
REMARK   18  A    between atoms: _41  and  _42
REMARK   19  A    between atoms: _45  and  _47
REMARK   20  A    between atoms: _47  and  _48
REMARK   21  A    between atoms: _47  and  _50
REMARK   22  A    between atoms: _50  and  _51
REMARK   23  A    between atoms: _54  and  _56
REMARK   24  A    between atoms: _56  and  _57
REMARK   25  A    between atoms: _59  and  _61
REMARK   26  A    between atoms: _61  and  _62
REMARK   27  A    between atoms: _65  and  _67
REMARK   28  A    between atoms: _67  and  _68
REMARK   29  A    between atoms: _67  and  _70
REMARK   30  A    between atoms: _70  and  _71
REMARK   31  A    between atoms: _74  and  _76
REMARK   32  A    between atoms: _76  and  _77
REMARK   33  A    between atoms: _76  and  _79
REMARK   34  A    between atoms: _79  and  _80
REMARK   35  A    between atoms: _83  and  _85
REMARK   36  A    between atoms: _85  and  _86
REMARK   37  A    between atoms: _85  and  _88
REMARK   38  A    between atoms: _88  and  _89
REMARK   39  A    between atoms: _92  and  _94
REMARK   40  A    between atoms: _94  and  _95
REMARK   41  A    between atoms: _94  and  _97
REMARK   42  A    between atoms: _100  and  _102
REMARK   43  A    between atoms: _102  and  _103
REMARK   44  A    between atoms: _102  and  _105
REMARK   45  A    between atoms: _105  and  _106
REMARK   46  A    between atoms: _106  and  _107
REMARK   47  A    between atoms: _107  and  _108
REMARK   48  A    between atoms: _108  and  _109
REMARK   49  A    between atoms: _113  and  _115
REMARK   50  A    between atoms: _115  and  _116
REMARK   51  A    between atoms: _115  and  _118
REMARK   52  A    between atoms: _118  and  _119
REMARK   53  A    between atoms: _119  and  _120
REMARK   54  A    between atoms: _122  and  _124
REMARK   55  A    between atoms: _124  and  _125
REMARK   56  A    between atoms: _124  and  _127
REMARK   57  A    between atoms: _127  and  _128
REMARK   58  A    between atoms: _131  and  _133
REMARK   59  A    between atoms: _133  and  _134
REMARK   60  A    between atoms: _136  and  _138
REMARK   61  A    between atoms: _138  and  _139
REMARK   62  A    between atoms: _141  and  _143
REMARK   63  A    between atoms: _143  and  _144
REMARK   64  A    between atoms: _143  and  _146
REMARK   65  A    between atoms: _146  and  _147
REMARK   66  A    between atoms: _150  and  _152
REMARK   67  A    between atoms: _152  and  _153
REMARK   68  A    between atoms: _155  and  _157
REMARK   69  A    between atoms: _157  and  _158
REMARK   70  A    between atoms: _160  and  _162
REMARK   71  A    between atoms: _162  and  _163
REMARK   72  A    between atoms: _162  and  _165
REMARK   73  A    between atoms: _165  and  _166
REMARK   74  A    between atoms: _172  and  _174
REMARK   75  A    between atoms: _174  and  _175
REMARK   76  A    between atoms: _174  and  _177
REMARK   77  A    between atoms: _177  and  _178
REMARK   78  A    between atoms: _181  and  _183
REMARK   79  A    between atoms: _183  and  _184
REMARK   80  A    between atoms: _183  and  _186
REMARK   81  A    between atoms: _189  and  _191
REMARK   82  A    between atoms: _191  and  _192
REMARK   83  A    between atoms: _191  and  _194
REMARK   84  A    between atoms: _194  and  _195
REMARK   85  A    between atoms: _199  and  _200
REMARK   86  A    between atoms: _205  and  _207
REMARK   87  A    between atoms: _207  and  _208
REMARK   88  A    between atoms: _207  and  _210
REMARK   89  A    between atoms: _210  and  _211
REMARK   90  A    between atoms: _215  and  _216
REMARK   91  A    between atoms: _221  and  _223
REMARK   92  A    between atoms: _223  and  _224
REMARK   93  A    between atoms: _223  and  _226
REMARK   94  A    between atoms: _229  and  _231
REMARK   95  A    between atoms: _231  and  _232
REMARK   96  A    between atoms: _231  and  _234
REMARK   97  A    between atoms: _234  and  _235
REMARK   98  A    between atoms: _240  and  _242
REMARK   99  A    between atoms: _242  and  _243
REMARK  100  A    between atoms: _242  and  _245
REMARK  101  A    between atoms: _245  and  _246
REMARK  102  A    between atoms: _249  and  _251
REMARK  103  A    between atoms: _251  and  _252
REMARK  104  A    between atoms: _251  and  _254
REMARK  105  A    between atoms: _254  and  _255
REMARK  106  A    between atoms: _258  and  _260
REMARK  107  A    between atoms: _260  and  _261
REMARK  108  A    between atoms: _263  and  _265
REMARK  109  A    between atoms: _265  and  _266
REMARK  110  A    between atoms: _265  and  _268
REMARK  111  A    between atoms: _269  and  _270
REMARK  112  A    between atoms: _270  and  _271
REMARK  113  A    between atoms: _280  and  _282
REMARK  114  A    between atoms: _282  and  _283
REMARK  115  A    between atoms: _282  and  _285
REMARK  116  A    between atoms: _285  and  _286
REMARK  117  A    between atoms: _291  and  _293
REMARK  118  A    between atoms: _293  and  _294
REMARK  119  A    between atoms: _293  and  _296
REMARK  120  A    between atoms: _296  and  _297
REMARK  121  A    between atoms: _297  and  _298
REMARK  122  A    between atoms: _298  and  _299
REMARK  123  A    between atoms: _308  and  _310
REMARK  124  A    between atoms: _310  and  _311
REMARK  125  A    between atoms: _310  and  _313
REMARK  126  A    between atoms: _313  and  _314
REMARK  127  A    between atoms: _317  and  _319
REMARK  128  A    between atoms: _319  and  _320
REMARK  129  A    between atoms: _319  and  _322
REMARK  130  A    between atoms: _322  and  _323
REMARK  131  A    between atoms: _326  and  _328
REMARK  132  A    between atoms: _328  and  _329
REMARK  133  A    between atoms: _328  and  _331
REMARK  134  A    between atoms: _331  and  _332
REMARK  135  A    between atoms: _335  and  _337
REMARK  136  A    between atoms: _337  and  _338
REMARK  137  A    between atoms: _337  and  _340
REMARK  138  A    between atoms: _340  and  _341
REMARK  139  A    between atoms: _344  and  _346
REMARK  140  A    between atoms: _346  and  _347
REMARK  141  A    between atoms: _349  and  _351
REMARK  142  A    between atoms: _351  and  _352
REMARK  143  A    between atoms: _355  and  _357
REMARK  144  A    between atoms: _357  and  _358
REMARK  145  A    between atoms: _357  and  _360
REMARK  146  A    between atoms: _360  and  _361
REMARK  147  A    between atoms: _364  and  _366
REMARK  148  A    between atoms: _366  and  _367
REMARK  149  A    between atoms: _366  and  _369
REMARK  150  A    between atoms: _369  and  _370
REMARK  151  A    between atoms: _373  and  _375
REMARK  152  A    between atoms: _375  and  _376
REMARK  153  A    between atoms: _375  and  _378
REMARK  154  A    between atoms: _378  and  _379
REMARK  155  A    between atoms: _382  and  _384
REMARK  156  A    between atoms: _384  and  _385
REMARK  157  A    between atoms: _384  and  _387
REMARK  158  A    between atoms: _390  and  _392
REMARK  159  A    between atoms: _392  and  _393
REMARK  160  A    between atoms: _392  and  _395
REMARK  161  A    between atoms: _395  and  _396
REMARK  162  A    between atoms: _396  and  _397
REMARK  163  A    between atoms: _397  and  _398
REMARK  164  A    between atoms: _398  and  _399
REMARK  165  A    between atoms: _403  and  _405
REMARK  166  A    between atoms: _405  and  _406
REMARK  167  A    between atoms: _405  and  _408
REMARK  168  A    between atoms: _408  and  _409
REMARK  169  A    between atoms: _409  and  _410
REMARK  170  A    between atoms: _412  and  _414
REMARK  171  A    between atoms: _414  and  _415
REMARK  172  A    between atoms: _414  and  _417
REMARK  173  A    between atoms: _417  and  _418
REMARK  174  A    between atoms: _421  and  _423
REMARK  175  A    between atoms: _423  and  _424
REMARK  176  A    between atoms: _426  and  _428
REMARK  177  A    between atoms: _428  and  _429
REMARK  178  A    between atoms: _431  and  _433
REMARK  179  A    between atoms: _433  and  _434
REMARK  180  A    between atoms: _433  and  _436
REMARK  181  A    between atoms: _436  and  _437
REMARK  182  A    between atoms: _440  and  _442
REMARK  183  A    between atoms: _442  and  _443
REMARK  184  A    between atoms: _445  and  _447
REMARK  185  A    between atoms: _447  and  _448
REMARK  186  A    between atoms: _450  and  _452
REMARK  187  A    between atoms: _452  and  _453
REMARK  188  A    between atoms: _452  and  _455
REMARK  189  A    between atoms: _455  and  _456
REMARK  190  A    between atoms: _462  and  _464
REMARK  191  A    between atoms: _464  and  _465
REMARK  192  A    between atoms: _464  and  _467
REMARK  193  A    between atoms: _467  and  _468
REMARK  194  A    between atoms: _471  and  _473
REMARK  195  A    between atoms: _473  and  _474
REMARK  196  A    between atoms: _473  and  _476
REMARK  197  A    between atoms: _476  and  _477
REMARK  198  A    between atoms: _480  and  _482
REMARK  199  A    between atoms: _482  and  _483
REMARK  200  A    between atoms: _482  and  _485
REMARK  201  A    between atoms: _485  and  _486
REMARK  202  A    between atoms: _490  and  _491
REMARK  203  A    between atoms: _496  and  _498
REMARK  204  A    between atoms: _498  and  _499
REMARK  205  A    between atoms: _498  and  _501
REMARK  206  A    between atoms: _504  and  _506
REMARK  207  A    between atoms: _506  and  _507
REMARK  208  A    between atoms: _506  and  _509
REMARK  209  A    between atoms: _509  and  _510
REMARK  210  A    between atoms: _515  and  _517
REMARK  211  A    between atoms: _517  and  _518
REMARK  212  A    between atoms: _517  and  _520
REMARK  213  A    between atoms: _520  and  _521
REMARK  214  A    between atoms: _524  and  _526
REMARK  215  A    between atoms: _526  and  _527
REMARK  216  A    between atoms: _529  and  _531
REMARK  217  A    between atoms: _531  and  _532
REMARK  218  A    between atoms: _531  and  _534
REMARK  219  A    between atoms: _534  and  _535
REMARK  220  A    between atoms: _535  and  _536
REMARK  221  A    between atoms: _536  and  _537
REMARK  222  A    between atoms: _546  and  _548
REMARK  223  A    between atoms: _548  and  _549
REMARK  224  A    between atoms: _548  and  _551
REMARK  225  A    between atoms: _551  and  _552
REMARK                            x       y       z     vdW  Elec       q    Type
REMARK                         _______ _______ _______ _____ _____    ______ ____
ROOT
ATOM      1  CA  VAL A   1      24.881  25.900   5.374  0.00  0.00    +0.133 C 
ENDROOT
BRANCH   1   2
ATOM      2  CB  VAL A   1      24.014  26.478   6.497  0.00  0.00    +0.023 C 
ATOM      3  CG2 VAL A   1      24.863  27.225   7.517  0.00  0.00    +0.002 C 
ATOM      4  CG1 VAL A   1      23.196  25.393   7.169  0.00  0.00    +0.002 C 
ENDBRANCH   1   2
BRANCH   1   5
ATOM      5  N   VAL A   1      25.807  24.923   5.913  0.00  0.00    -0.239 NA
ATOM      6  H   VAL A   1      26.630  25.269   6.447  0.00  0.00    +0.142 HD
ENDBRANCH   1   5
BRANCH   1   7
ATOM      7  C   VAL A   1      25.642  26.993   4.665  0.00  0.00    +0.224 C 
ATOM      8  O   VAL A   1      26.851  27.149   4.813  0.00  0.00    -0.287 OA
ENDBRANCH   1   7
TORSDOF 3
REMARK  Name = ../refined-set-2016/4dfg/4dfg_pocket.pdb
REMARK  225 active torsions:
REMARK  status: ('A' for Active; 'I' for Inactive)
REMARK    1  A    between atoms: _1  and  _3
REMARK    2  A    between atoms: _3  and  _4
REMARK    3  A    between atoms: _3  and  _6
REMARK    4  A    between atoms: _6  and  _7
REMARK    5  A    between atoms: _7  and  _8
REMARK    6  A    between atoms: _8  and  _9
REMARK    7  A    between atoms: _18  and  _20
REMARK    8  A    between atoms: _20  and  _21
REMARK    9  A    between atoms: _20  and  _23
REMARK   10  A    between atoms: _23  and  _24
REMARK   11  A    between atoms: _27  and  _29
REMARK   12  A    between atoms: _29  and  _30
REMARK   13  A    between atoms: _29  and  _32
REMARK   14  A    between atoms: _32  and  _33
REMARK   15  A    between atoms: _36  and  _38
REMARK   16  A    between atoms: _38  and  _39
REMARK   17  A    between atoms: _38  and  _41
REMARK   18  A    between atoms: _41  and  _42
REMARK   19  A    between atoms: _45  and  _47
REMARK   20  A    between atoms: _47  and  _48
REMARK   21  A    between atoms: _47  and  _50
REMARK   22  A    between atoms: _50  and  _51
REMARK   23  A    between atoms: _54  and  _56
REMARK   24  A    between atoms: _56  and  _57
REMARK   25  A    between atoms: _59  and  _61
REMARK   26  A    between atoms: _61  and  _62
REMARK   27  A    between atoms: _65  and  _67
REMARK   28  A    between atoms: _67  and  _68
REMARK   29  A    between atoms: _67  and  _70
REMARK   30  A    between atoms: _70  and  _71
REMARK   31  A    between atoms: _74  and  _76
REMARK   32  A    between atoms: _76  and  _77
REMARK   33  A    between atoms: _76  and  _79
REMARK   34  A    between atoms: _79  and  _80
REMARK   35  A    between atoms: _83  and  _85
REMARK   36  A    between atoms: _85  and  _86
REMARK   37  A    between atoms: _85  and  _88
REMARK   38  A    between atoms: _88  and  _89
REMARK   39  A    between atoms: _92  and  _94
REMARK   40  A    between atoms: _94  and  _95
REMARK   41  A    between atoms: _94  and  _97
REMARK   42  A    between atoms: _100  and  _102
REMARK   43  A    between atoms: _102  and  _103
REMARK   44  A    between atoms: _102  and  _105
REMARK   45  A    between atoms: _105  and  _106
REMARK   46  A    between atoms: _106  and  _107
REMARK   47  A    between atoms: _107  and  _108
REMARK   48  A    between atoms: _108  and  _109
REMARK   49  A    between atoms: _113  and  _115
REMARK   50  A    between atoms: _115  and  _116
REMARK   51  A    between atoms: _115  and  _118
REMARK   52  A    between atoms: _118  and  _119
REMARK   53  A    between atoms: _119  and  _120
REMARK   54  A    between atoms: _122  and  _124
REMARK   55  A    between atoms: _124  and  _125
REMARK   56  A    between atoms: _124  and  _127
REMARK   57  A    between atoms: _127  and  _128
REMARK   58  A    between atoms: _131  and  _133
REMARK   59  A    between atoms: _133  and  _134
REMARK   60  A    between atoms: _136  and  _138
REMARK   61  A    between atoms: _138  and  _139
REMARK   62  A    between atoms: _141  and  _143
REMARK   63  A    between atoms: _143  and  _144
REMARK   64  A    between atoms: _143  and  _146
REMARK   65  A    between atoms: _146  and  _147
REMARK   66  A    between atoms: _150  and  _152
REMARK   67  A    between atoms: _152  and  _153
REMARK   68  A    between atoms: _155  and  _157
REMARK   69  A    between atoms: _157  and  _158
REMARK   70  A    between atoms: _160  and  _162
REMARK   71  A    between atoms: _162  and  _163
REMARK   72  A    between atoms: _162  and  _165
REMARK   73  A    between atoms: _165  and  _166
REMARK   74  A    between atoms: _172  and  _174
REMARK   75  A    between atoms: _174  and  _175
REMARK   76  A    between atoms: _174  and  _177
REMARK   77  A    between atoms: _177  and  _178
REMARK   78  A    between atoms: _181  and  _183
REMARK   79  A    between atoms: _183  and  _184
REMARK   80  A    between atoms: _183  and  _186
REMARK   81  A    between atoms: _189  and  _191
REMARK   82  A    between atoms: _191  and  _192
REMARK   83  A    between atoms: _191  and  _194
REMARK   84  A    between atoms: _194  and  _195
REMARK   85  A    between atoms: _199  and  _200
REMARK   86  A    between atoms: _205  and  _207
REMARK   87  A    between atoms: _207  and  _208
REMARK   88  A    between atoms: _207  and  _210
REMARK   89  A    between atoms: _210  and  _211
REMARK   90  A    between atoms: _215  and  _216
REMARK   91  A    between atoms: _221  and  _223
REMARK   92  A    between atoms: _223  and  _224
REMARK   93  A    between atoms: _223  and  _226
REMARK   94  A    between atoms: _229  and  _231
REMARK   95  A    between atoms: _231  and  _232
REMARK   96  A    between atoms: _231  and  _234
REMARK   97  A    between atoms: _234  and  _235
REMARK   98  A    between atoms: _240  and  _242
REMARK   99  A    between atoms: _242  and  _243
REMARK  100  A    between atoms: _242  and  _245
REMARK  101  A    between atoms: _245  and  _246
REMARK  102  A    between atoms: _249  and  _251
REMARK  103  A    between atoms: _251  and  _252
REMARK  104  A    between atoms: _251  and  _254
REMARK  105  A    between atoms: _254  and  _255
REMARK  106  A    between atoms: _258  and  _260
REMARK  107  A    between atoms: _260  and  _261
REMARK  108  A    between atoms: _263  and  _265
REMARK  109  A    between atoms: _265  and  _266
REMARK  110  A    between atoms: _265  and  _268
REMARK  111  A    between atoms: _269  and  _270
REMARK  112  A    between atoms: _270  and  _271
REMARK  113  A    between atoms: _280  and  _282
REMARK  114  A    between atoms: _282  and  _283
REMARK  115  A    between atoms: _282  and  _285
REMARK  116  A    between atoms: _285  and  _286
REMARK  117  A    between atoms: _291  and  _293
REMARK  118  A    between atoms: _293  and  _294
REMARK  119  A    between atoms: _293  and  _296
REMARK  120  A    between atoms: _296  and  _297
REMARK  121  A    between atoms: _297  and  _298
REMARK  122  A    between atoms: _298  and  _299
REMARK  123  A    between atoms: _308  and  _310
REMARK  124  A    between atoms: _310  and  _311
REMARK  125  A    between atoms: _310  and  _313
REMARK  126  A    between atoms: _313  and  _314
REMARK  127  A    between atoms: _317  and  _319
REMARK  128  A    between atoms: _319  and  _320
REMARK  129  A    between atoms: _319  and  _322
REMARK  130  A    between atoms: _322  and  _323
REMARK  131  A    between atoms: _326  and  _328
REMARK  132  A    between atoms: _328  and  _329
REMARK  133  A    between atoms: _328  and  _331
REMARK  134  A    between atoms: _331  and  _332
REMARK  135  A    between atoms: _335  and  _337
REMARK  136  A    between atoms: _337  and  _338
REMARK  137  A    between atoms: _337  and  _340
REMARK  138  A    between atoms: _340  and  _341
REMARK  139  A    between atoms: _344  and  _346
REMARK  140  A    between atoms: _346  and  _347
REMARK  141  A    between atoms: _349  and  _351
REMARK  142  A    between atoms: _351  and  _352
REMARK  143  A    between atoms: _355  and  _357
REMARK  144  A    between atoms: _357  and  _358
REMARK  145  A    between atoms: _357  and  _360
REMARK  146  A    between atoms: _360  and  _361
REMARK  147  A    between atoms: _364  and  _366
REMARK  148  A    between atoms: _366  and  _367
REMARK  149  A    between atoms: _366  and  _369
REMARK  150  A    between atoms: _369  and  _370
REMARK  151  A    between atoms: _373  and  _375
REMARK  152  A    between atoms: _375  and  _376
REMARK  153  A    between atoms: _375  and  _378
REMARK  154  A    between atoms: _378  and  _379
REMARK  155  A    between atoms: _382  and  _384
REMARK  156  A    between atoms: _384  and  _385
REMARK  157  A    between atoms: _384  and  _387
REMARK  158  A    between atoms: _390  and  _392
REMARK  159  A    between atoms: _392  and  _393
REMARK  160  A    between atoms: _392  and  _395
REMARK  161  A    between atoms: _395  and  _396
REMARK  162  A    between atoms: _396  and  _397
REMARK  163  A    between atoms: _397  and  _398
REMARK  164  A    between atoms: _398  and  _399
REMARK  165  A    between atoms: _403  and  _405
REMARK  166  A    between atoms: _405  and  _406
REMARK  167  A    between atoms: _405  and  _408
REMARK  168  A    between atoms: _408  and  _409
REMARK  169  A    between atoms: _409  and  _410
REMARK  170  A    between atoms: _412  and  _414
REMARK  171  A    between atoms: _414  and  _415
REMARK  172  A    between atoms: _414  and  _417
REMARK  173  A    between atoms: _417  and  _418
REMARK  174  A    between atoms: _421  and  _423
REMARK  175  A    between atoms: _423  and  _424
REMARK  176  A    between atoms: _426  and  _428
REMARK  177  A    between atoms: _428  and  _429
REMARK  178  A    between atoms: _431  and  _433
REMARK  179  A    between atoms: _433  and  _434
REMARK  180  A    between atoms: _433  and  _436
REMARK  181  A    between atoms: _436  and  _437
REMARK  182  A    between atoms: _440  and  _442
REMARK  183  A    between atoms: _442  and  _443
REMARK  184  A    between atoms: _445  and  _447
REMARK  185  A    between atoms: _447  and  _448
REMARK  186  A    between atoms: _450  and  _452
REMARK  187  A    between atoms: _452  and  _453
REMARK  188  A    between atoms: _452  and  _455
REMARK  189  A    between atoms: _455  and  _456
REMARK  190  A    between atoms: _462  and  _464
REMARK  191  A    between atoms: _464  and  _465
REMARK  192  A    between atoms: _464  and  _467
REMARK  193  A    between atoms: _467  and  _468
REMARK  194  A    between atoms: _471  and  _473
REMARK  195  A    between atoms: _473  and  _474
REMARK  196  A    between atoms: _473  and  _476
REMARK  197  A    between atoms: _476  and  _477
REMARK  198  A    between atoms: _480  and  _482
REMARK  199  A    between atoms: _482  and  _483
REMARK  200  A    between atoms: _482  and  _485
REMARK  201  A    between atoms: _485  and  _486
REMARK  202  A    between atoms: _490  and  _491
REMARK  203  A    between atoms: _496  and  _498
REMARK  204  A    between atoms: _498  and  _499
REMARK  205  A    between atoms: _498  and  _501
REMARK  206  A    between atoms: _504  and  _506
REMARK  207  A    between atoms: _506  and  _507
REMARK  208  A    between atoms: _506  and  _509
REMARK  209  A    between atoms: _509  and  _510
REMARK  210  A    between atoms: _515  and  _517
REMARK  211  A    between atoms: _517  and  _518
REMARK  212  A    between atoms: _517  and  _520
REMARK  213  A    between atoms: _520  and  _521
REMARK  214  A    between atoms: _524  and  _526
REMARK  215  A    between atoms: _526  and  _527
REMARK  216  A    between atoms: _529  and  _531
REMARK  217  A    between atoms: _531  and  _532
REMARK  218  A    between atoms: _531  and  _534
REMARK  219  A    between atoms: _534  and  _535
REMARK  220  A    between atoms: _535  and  _536
REMARK  221  A    between atoms: _536  and  _537
REMARK  222  A    between atoms: _546  and  _548
REMARK  223  A    between atoms: _548  and  _549
REMARK  224  A    between atoms: _548  and  _551
REMARK  225  A    between atoms: _551  and  _552
REMARK                            x       y       z     vdW  Elec       q    Type
REMARK                         _______ _______ _______ _____ _____    ______ ____
ROOT
ATOM      1  CA  LEU A   1      21.429  30.480   6.726  0.00  0.00    +0.133 C 
ENDROOT
BRANCH   1   2
ATOM      2  N   LEU A   1      20.692  31.687   7.027  0.00  0.00    -0.239 NA
ATOM      3  H   LEU A   1      20.016  31.659   7.817  0.00  0.00    +0.142 HD
ENDBRANCH   1   2
BRANCH   1   4
ATOM      4  C   LEU A   1      20.596  29.567   5.866  0.00  0.00    +0.224 C 
ATOM      5  O   LEU A   1      19.415  29.377   6.162  0.00  0.00    -0.287 OA
ENDBRANCH   1   4
BRANCH   1   6
ATOM      6  CB  LEU A   1      21.848  29.767   8.020  0.00  0.00    +0.025 C 
BRANCH   6   7
ATOM      7  CG  LEU A   1      22.585  30.654   9.035  0.00  0.00    +0.002 C 
ATOM      8  CD2 LEU A   1      22.998  29.815  10.221  0.00  0.00    +0.000 C 
ATOM      9  CD1 LEU A   1      23.773  31.408   8.459  0.00  0.00    +0.000 C 
ENDBRANCH   6   7
ENDBRANCH   1   6
TORSDOF 4
REMARK  Name = ../refined-set-2016/4dfg/4dfg_pocket.pdb
REMARK  225 active torsions:
REMARK  status: ('A' for Active; 'I' for Inactive)
REMARK    1  A    between atoms: _1  and  _3
REMARK    2  A    between atoms: _3  and  _4
REMARK    3  A    between atoms: _3  and  _6
REMARK    4  A    between atoms: _6  and  _7
REMARK    5  A    between atoms: _7  and  _8
REMARK    6  A    between atoms: _8  and  _9
REMARK    7  A    between atoms: _18  and  _20
REMARK    8  A    between atoms: _20  and  _21
REMARK    9  A    between atoms: _20  and  _23
REMARK   10  A    between atoms: _23  and  _24
REMARK   11  A    between atoms: _27  and  _29
REMARK   12  A    between atoms: _29  and  _30
REMARK   13  A    between atoms: _29  and  _32
REMARK   14  A    between atoms: _32  and  _33
REMARK   15  A    between atoms: _36  and  _38
REMARK   16  A    between atoms: _38  and  _39
REMARK   17  A    between atoms: _38  and  _41
REMARK   18  A    between atoms: _41  and  _42
REMARK   19  A    between atoms: _45  and  _47
REMARK   20  A    between atoms: _47  and  _48
REMARK   21  A    between atoms: _47  and  _50
REMARK   22  A    between atoms: _50  and  _51
REMARK   23  A    between atoms: _54  and  _56
REMARK   24  A    between atoms: _56  and  _57
REMARK   25  A    between atoms: _59  and  _61
REMARK   26  A    between atoms: _61  and  _62
REMARK   27  A    between atoms: _65  and  _67
REMARK   28  A    between atoms: _67  and  _68
REMARK   29  A    between atoms: _67  and  _70
REMARK   30  A    between atoms: _70  and  _71
REMARK   31  A    between atoms: _74  and  _76
REMARK   32  A    between atoms: _76  and  _77
REMARK   33  A    between atoms: _76  and  _79
REMARK   34  A    between atoms: _79  and  _80
REMARK   35  A    between atoms: _83  and  _85
REMARK   36  A    between atoms: _85  and  _86
REMARK   37  A    between atoms: _85  and  _88
REMARK   38  A    between atoms: _88  and  _89
REMARK   39  A    between atoms: _92  and  _94
REMARK   40  A    between atoms: _94  and  _95
REMARK   41  A    between atoms: _94  and  _97
REMARK   42  A    between atoms: _100  and  _102
REMARK   43  A    between atoms: _102  and  _103
REMARK   44  A    between atoms: _102  and  _105
REMARK   45  A    between atoms: _105  and  _106
REMARK   46  A    between atoms: _106  and  _107
REMARK   47  A    between atoms: _107  and  _108
REMARK   48  A    between atoms: _108  and  _109
REMARK   49  A    between atoms: _113  and  _115
REMARK   50  A    between atoms: _115  and  _116
REMARK   51  A    between atoms: _115  and  _118
REMARK   52  A    between atoms: _118  and  _119
REMARK   53  A    between atoms: _119  and  _120
REMARK   54  A    between atoms: _122  and  _124
REMARK   55  A    between atoms: _124  and  _125
REMARK   56  A    between atoms: _124  and  _127
REMARK   57  A    between atoms: _127  and  _128
REMARK   58  A    between atoms: _131  and  _133
REMARK   59  A    between atoms: _133  and  _134
REMARK   60  A    between atoms: _136  and  _138
REMARK   61  A    between atoms: _138  and  _139
REMARK   62  A    between atoms: _141  and  _143
REMARK   63  A    between atoms: _143  and  _144
REMARK   64  A    between atoms: _143  and  _146
REMARK   65  A    between atoms: _146  and  _147
REMARK   66  A    between atoms: _150  and  _152
REMARK   67  A    between atoms: _152  and  _153
REMARK   68  A    between atoms: _155  and  _157
REMARK   69  A    between atoms: _157  and  _158
REMARK   70  A    between atoms: _160  and  _162
REMARK   71  A    between atoms: _162  and  _163
REMARK   72  A    between atoms: _162  and  _165
REMARK   73  A    between atoms: _165  and  _166
REMARK   74  A    between atoms: _172  and  _174
REMARK   75  A    between atoms: _174  and  _175
REMARK   76  A    between atoms: _174  and  _177
REMARK   77  A    between atoms: _177  and  _178
REMARK   78  A    between atoms: _181  and  _183
REMARK   79  A    between atoms: _183  and  _184
REMARK   80  A    between atoms: _183  and  _186
REMARK   81  A    between atoms: _189  and  _191
REMARK   82  A    between atoms: _191  and  _192
REMARK   83  A    between atoms: _191  and  _194
REMARK   84  A    between atoms: _194  and  _195
REMARK   85  A    between atoms: _199  and  _200
REMARK   86  A    between atoms: _205  and  _207
REMARK   87  A    between atoms: _207  and  _208
REMARK   88  A    between atoms: _207  and  _210
REMARK   89  A    between atoms: _210  and  _211
REMARK   90  A    between atoms: _215  and  _216
REMARK   91  A    between atoms: _221  and  _223
REMARK   92  A    between atoms: _223  and  _224
REMARK   93  A    between atoms: _223  and  _226
REMARK   94  A    between atoms: _229  and  _231
REMARK   95  A    between atoms: _231  and  _232
REMARK   96  A    between atoms: _231  and  _234
REMARK   97  A    between atoms: _234  and  _235
REMARK   98  A    between atoms: _240  and  _242
REMARK   99  A    between atoms: _242  and  _243
REMARK  100  A    between atoms: _242  and  _245
REMARK  101  A    between atoms: _245  and  _246
REMARK  102  A    between atoms: _249  and  _251
REMARK  103  A    between atoms: _251  and  _252
REMARK  104  A    between atoms: _251  and  _254
REMARK  105  A    between atoms: _254  and  _255
REMARK  106  A    between atoms: _258  and  _260
REMARK  107  A    between atoms: _260  and  _261
REMARK  108  A    between atoms: _263  and  _265
REMARK  109  A    between atoms: _265  and  _266
REMARK  110  A    between atoms: _265  and  _268
REMARK  111  A    between atoms: _269  and  _270
REMARK  112  A    between atoms: _270  and  _271
REMARK  113  A    between atoms: _280  and  _282
REMARK  114  A    between atoms: _282  and  _283
REMARK  115  A    between atoms: _282  and  _285
REMARK  116  A    between atoms: _285  and  _286
REMARK  117  A    between atoms: _291  and  _293
REMARK  118  A    between atoms: _293  and  _294
REMARK  119  A    between atoms: _293  and  _296
REMARK  120  A    between atoms: _296  and  _297
REMARK  121  A    between atoms: _297  and  _298
REMARK  122  A    between atoms: _298  and  _299
REMARK  123  A    between atoms: _308  and  _310
REMARK  124  A    between atoms: _310  and  _311
REMARK  125  A    between atoms: _310  and  _313
REMARK  126  A    between atoms: _313  and  _314
REMARK  127  A    between atoms: _317  and  _319
REMARK  128  A    between atoms: _319  and  _320
REMARK  129  A    between atoms: _319  and  _322
REMARK  130  A    between atoms: _322  and  _323
REMARK  131  A    between atoms: _326  and  _328
REMARK  132  A    between atoms: _328  and  _329
REMARK  133  A    between atoms: _328  and  _331
REMARK  134  A    between atoms: _331  and  _332
REMARK  135  A    between atoms: _335  and  _337
REMARK  136  A    between atoms: _337  and  _338
REMARK  137  A    between atoms: _337  and  _340
REMARK  138  A    between atoms: _340  and  _341
REMARK  139  A    between atoms: _344  and  _346
REMARK  140  A    between atoms: _346  and  _347
REMARK  141  A    between atoms: _349  and  _351
REMARK  142  A    between atoms: _351  and  _352
REMARK  143  A    between atoms: _355  and  _357
REMARK  144  A    between atoms: _357  and  _358
REMARK  145  A    between atoms: _357  and  _360
REMARK  146  A    between atoms: _360  and  _361
REMARK  147  A    between atoms: _364  and  _366
REMARK  148  A    between atoms: _366  and  _367
REMARK  149  A    between atoms: _366  and  _369
REMARK  150  A    between atoms: _369  and  _370
REMARK  151  A    between atoms: _373  and  _375
REMARK  152  A    between atoms: _375  and  _376
REMARK  153  A    between atoms: _375  and  _378
REMARK  154  A    between atoms: _378  and  _379
REMARK  155  A    between atoms: _382  and  _384
REMARK  156  A    between atoms: _384  and  _385
REMARK  157  A    between atoms: _384  and  _387
REMARK  158  A    between atoms: _390  and  _392
REMARK  159  A    between atoms: _392  and  _393
REMARK  160  A    between atoms: _392  and  _395
REMARK  161  A    between atoms: _395  and  _396
REMARK  162  A    between atoms: _396  and  _397
REMARK  163  A    between atoms: _397  and  _398
REMARK  164  A    between atoms: _398  and  _399
REMARK  165  A    between atoms: _403  and  _405
REMARK  166  A    between atoms: _405  and  _406
REMARK  167  A    between atoms: _405  and  _408
REMARK  168  A    between atoms: _408  and  _409
REMARK  169  A    between atoms: _409  and  _410
REMARK  170  A    between atoms: _412  and  _414
REMARK  171  A    between atoms: _414  and  _415
REMARK  172  A    between atoms: _414  and  _417
REMARK  173  A    between atoms: _417  and  _418
REMARK  174  A    between atoms: _421  and  _423
REMARK  175  A    between atoms: _423  and  _424
REMARK  176  A    between atoms: _426  and  _428
REMARK  177  A    between atoms: _428  and  _429
REMARK  178  A    between atoms: _431  and  _433
REMARK  179  A    between atoms: _433  and  _434
REMARK  180  A    between atoms: _433  and  _436
REMARK  181  A    between atoms: _436  and  _437
REMARK  182  A    between atoms: _440  and  _442
REMARK  183  A    between atoms: _442  and  _443
REMARK  184  A    between atoms: _445  and  _447
REMARK  185  A    between atoms: _447  and  _448
REMARK  186  A    between atoms: _450  and  _452
REMARK  187  A    between atoms: _452  and  _453
REMARK  188  A    between atoms: _452  and  _455
REMARK  189  A    between atoms: _455  and  _456
REMARK  190  A    between atoms: _462  and  _464
REMARK  191  A    between atoms: _464  and  _465
REMARK  192  A    between atoms: _464  and  _467
REMARK  193  A    between atoms: _467  and  _468
REMARK  194  A    between atoms: _471  and  _473
REMARK  195  A    between atoms: _473  and  _474
REMARK  196  A    between atoms: _473  and  _476
REMARK  197  A    between atoms: _476  and  _477
REMARK  198  A    between atoms: _480  and  _482
REMARK  199  A    between atoms: _482  and  _483
REMARK  200  A    between atoms: _482  and  _485
REMARK  201  A    between atoms: _485  and  _486
REMARK  202  A    between atoms: _490  and  _491
REMARK  203  A    between atoms: _496  and  _498
REMARK  204  A    between atoms: _498  and  _499
REMARK  205  A    between atoms: _498  and  _501
REMARK  206  A    between atoms: _504  and  _506
REMARK  207  A    between atoms: _506  and  _507
REMARK  208  A    between atoms: _506  and  _509
REMARK  209  A    between atoms: _509  and  _510
REMARK  210  A    between atoms: _515  and  _517
REMARK  211  A    between atoms: _517  and  _518
REMARK  212  A    between atoms: _517  and  _520
REMARK  213  A    between atoms: _520  and  _521
REMARK  214  A    between atoms: _524  and  _526
REMARK  215  A    between atoms: _526  and  _527
REMARK  216  A    between atoms: _529  and  _531
REMARK  217  A    between atoms: _531  and  _532
REMARK  218  A    between atoms: _531  and  _534
REMARK  219  A    between atoms: _534  and  _535
REMARK  220  A    between atoms: _535  and  _536
REMARK  221  A    between atoms: _536  and  _537
REMARK  222  A    between atoms: _546  and  _548
REMARK  223  A    between atoms: _548  and  _549
REMARK  224  A    between atoms: _548  and  _551
REMARK  225  A    between atoms: _551  and  _552
REMARK                            x       y       z     vdW  Elec       q    Type
REMARK                         _______ _______ _______ _____ _____    ______ ____
ROOT
ATOM      1  CA  ILE A   6      13.375  28.231  11.478  0.00  0.00    +0.149 C 
ENDROOT
BRANCH   1   2
ATOM      2  C   ILE A   6      13.644  29.714  11.480  0.00  0.00    +0.241 C 
ATOM      3  N   ILE A   7      12.817  30.508  12.135  0.00  0.00    -0.297 N 
ATOM      4  H   ILE A   7      11.926  30.107  12.492  0.00  0.00    +0.150 HD
ATOM      5  O   ILE A   6      14.655  30.126  10.884  0.00  0.00    -0.273 OA
BRANCH   3   6
ATOM      6  CA  ILE A   7      13.091  31.931  12.386  0.00  0.00    +0.149 C 
BRANCH   6   7
ATOM      7  C   ILE A   7      13.717  31.990  13.775  0.00  0.00    +0.241 C 
ATOM      8  O   ILE A   7      13.072  31.686  14.790  0.00  0.00    -0.273 OA
ATOM      9  N   GLY A   8      15.013  32.321  13.828  0.00  0.00    -0.295 N 
ATOM     10  H   GLY A   8      15.516  32.546  12.946  0.00  0.00    +0.150 HD
BRANCH   9  11
ATOM     11  CA  GLY A   8      15.726  32.373  15.075  0.00  0.00    +0.176 C 
BRANCH  11  12
ATOM     12  C   GLY A   8      15.824  33.773  15.664  0.00  0.00    +0.243 C 
ATOM     13  N   ARG A   9      16.522  33.843  16.787  0.00  0.00    -0.294 N 
ATOM     14  H   ARG A   9      17.072  33.023  17.114  0.00  0.00    +0.150 HD
ATOM     15  O   GLY A   8      15.231  34.730  15.149  0.00  0.00    -0.273 OA
BRANCH  13  16
ATOM     16  CA  ARG A   9      16.514  35.068  17.555  0.00  0.00    +0.171 C 
BRANCH  16  17
ATOM     17  C   ARG A   9      17.018  36.276  16.813  0.00  0.00    +0.245 C 
ATOM     18  O   ARG A   9      16.567  37.405  17.074  0.00  0.00    -0.273 OA
ATOM     19  N   ASN A  10      17.949  36.091  15.879  0.00  0.00    -0.297 N 
ATOM     20  H   ASN A  10      18.296  35.132  15.675  0.00  0.00    +0.150 HD
BRANCH  19  21
ATOM     21  CA  ASN A  10      18.484  37.231  15.140  0.00  0.00    +0.146 C 
BRANCH  21  22
ATOM     22  C   ASN A  10      17.400  38.010  14.397  0.00  0.00    +0.227 C 
ATOM     23  O   ASN A  10      17.573  39.202  14.200  0.00  0.00    -0.286 OA
ENDBRANCH  21  22
BRANCH  21  24
ATOM     24  CB  ASN A  10      19.560  36.764  14.174  0.00  0.00    +0.112 C 
BRANCH  24  25
ATOM     25  CG  ASN A  10      19.068  36.079  12.939  0.00  0.00    +0.222 C 
ATOM     26  OD1 ASN A  10      18.323  35.072  13.047  0.00  0.00    -0.275 OA
ATOM     27  ND2 ASN A  10      19.457  36.577  11.778  0.00  0.00    -0.329 N 
ATOM     28 HD21 ASN A  10      20.075  37.413  11.752  0.00  0.00    +0.145 HD
ATOM     29 HD22 ASN A  10      19.145  36.132  10.891  0.00  0.00    +0.145 HD
ENDBRANCH  24  25
ENDBRANCH  21  24
ENDBRANCH  19  21
ENDBRANCH  16  17
BRANCH  16  30
ATOM     30  CB  ARG A   9      17.299  34.893  18.841  0.00  0.00    +0.001 C 
ATOM     31  CG  ARG A   9      16.709  33.913  19.826  0.00  0.00    +0.014 C 
BRANCH  31  32
ATOM     32  CD  ARG A   9      17.399  33.850  21.179  0.00  0.00    +0.200 C 
BRANCH  32  33
ATOM     33  NE  ARG A   9      18.796  33.420  21.016  0.00  0.00    -0.261 N 
ATOM     34  CZ  ARG A   9      19.880  34.176  20.948  0.00  0.00    +0.342 C 
ATOM     35  NH2 ARG A   9      19.806  35.502  21.100  0.00  0.00    -0.292 N 
ATOM     36 HH21 ARG A   9      18.886  35.955  21.275  0.00  0.00    +0.255 HD
ATOM     37 HH22 ARG A   9      20.668  36.081  21.044  0.00  0.00    +0.255 HD
ATOM     38  NH1 ARG A   9      21.074  33.653  20.759  0.00  0.00    -0.292 N 
ATOM     39 HH11 ARG A   9      21.910  34.270  20.709  0.00  0.00    +0.255 HD
ATOM     40 HH12 ARG A   9      21.181  32.623  20.659  0.00  0.00    +0.255 HD
ATOM     41  HE  ARG A   9      18.951  32.394  20.945  0.00  0.00    +0.259 HD
ENDBRANCH  32  33
ENDBRANCH  31  32
ENDBRANCH  16  30
ENDBRANCH  13  16
ENDBRANCH  11  12
ENDBRANCH   9  11
ENDBRANCH   6   7
BRANCH   6  42
ATOM     42  CB  ILE A   7      11.840  32.793  12.333  0.00  0.00    +0.027 C 
ATOM     43  CG2 ILE A   7      12.214  34.247  12.592  0.00  0.00    +0.002 C 
BRANCH  42  44
ATOM     44  CG1 ILE A   7      11.097  32.663  11.004  0.00  0.00    +0.002 C 
ATOM     45  CD1 ILE A   7      12.015  32.835   9.779  0.00  0.00    +0.000 C 
ENDBRANCH  42  44
ENDBRANCH   6  42
ENDBRANCH   3   6
ENDBRANCH   1   2
BRANCH   1  48
ATOM     46  C   ASN A   5      12.224  27.058   9.664  0.00  0.00    +0.241 C 
ATOM     47  O   ASN A   5      11.168  26.960  10.249  0.00  0.00    -0.273 OA
ATOM     48  N   ILE A   6      13.270  27.683  10.129  0.00  0.00    -0.297 N 
ATOM     49  H   ILE A   6      14.086  27.799   9.495  0.00  0.00    +0.150 HD
BRANCH  46  50
ATOM     50  CA  ASN A   5      12.376  26.453   8.277  0.00  0.00    +0.158 C 
BRANCH  50  53
ATOM     51  C   VAL A   4      12.704  24.117   8.892  0.00  0.00    +0.241 C 
ATOM     52  O   VAL A   4      13.849  24.371   9.266  0.00  0.00    -0.273 OA
ATOM     53  N   ASN A   5      11.955  25.049   8.312  0.00  0.00    -0.297 N 
ATOM     54  H   ASN A   5      11.052  24.777   7.874  0.00  0.00    +0.150 HD
BRANCH  51  55
ATOM     55  CA  VAL A   4      12.125  22.751   9.162  0.00  0.00    +0.149 C 
BRANCH  55  57
ATOM     56  C   PRO A   3      13.079  20.651   8.257  0.00  0.00    +0.241 C 
ATOM     57  N   VAL A   4      13.188  21.770   8.932  0.00  0.00    -0.297 N 
ATOM     58  H   VAL A   4      14.119  21.981   9.344  0.00  0.00    +0.150 HD
ATOM     59  O   PRO A   3      12.065  20.348   7.636  0.00  0.00    -0.273 OA
BRANCH  56  65
ATOM     60  C   THR A   2      16.018  21.171   7.498  0.00  0.00    +0.246 C 
ATOM     61  N   PRO A   3      15.572  20.329   8.412  0.00  0.00    -0.272 N 
ATOM     62  CD  PRO A   3      16.306  19.831   9.592  0.00  0.00    +0.094 C 
ATOM     63  CG  PRO A   3      15.570  18.564   9.945  0.00  0.00    +0.024 C 
ATOM     64  CB  PRO A   3      14.165  18.851   9.579  0.00  0.00    +0.031 C 
ATOM     65  CA  PRO A   3      14.261  19.693   8.286  0.00  0.00    +0.152 C 
ATOM     66  O   THR A   2      15.378  21.347   6.451  0.00  0.00    -0.273 OA
BRANCH  60  67
ATOM     67  CA  THR A   2      17.340  21.911   7.693  0.00  0.00    +0.176 C 
BRANCH  67  70
ATOM     68  C   PRO A   1      18.768  20.900   6.005  0.00  0.00    +0.239 C 
ATOM     69  O   PRO A   1      18.893  19.873   6.695  0.00  0.00    -0.274 OA
ATOM     70  N   THR A   2      18.079  21.914   6.457  0.00  0.00    -0.295 N 
ATOM     71  H   THR A   2      18.063  22.783   5.885  0.00  0.00    +0.150 HD
BRANCH  68  73
ATOM     72  N   PRO A   1      20.281  22.178   4.511  0.00  0.00    -0.210 NA
ATOM     73  CA  PRO A   1      19.355  21.044   4.616  0.00  0.00    +0.149 C 
ATOM     74  CB  PRO A   1      20.238  19.834   4.253  0.00  0.00    +0.028 C 
ATOM     75  CG  PRO A   1      21.594  20.278   4.754  0.00  0.00    +0.021 C 
ATOM     76  CD  PRO A   1      21.650  21.750   4.487  0.00  0.00    +0.089 C 
ENDBRANCH  68  73
ENDBRANCH  67  70
BRANCH  67  77
ATOM     77  CB  THR A   2      17.111  23.328   8.232  0.00  0.00    +0.137 C 
ATOM     78  CG2 THR A   2      16.390  24.241   7.259  0.00  0.00    +0.034 C 
BRANCH  77  79
ATOM     79  OG1 THR A   2      16.304  23.193   9.403  0.00  0.00    -0.382 OA
ATOM     80  HG1 THR A   2      15.445  22.763   9.163  0.00  0.00    +0.210 HD
ENDBRANCH  77  79
ENDBRANCH  67  77
ENDBRANCH  60  67
ENDBRANCH  56  65
ENDBRANCH  55  57
BRANCH  55  81
ATOM     81  CB  VAL A   4      11.605  22.643  10.618  0.00  0.00    +0.027 C 
ATOM     82  CG2 VAL A   4      10.532  23.639  11.025  0.00  0.00    +0.002 C 
ATOM     83  CG1 VAL A   4      11.022  21.231  10.848  0.00  0.00    +0.002 C 
ENDBRANCH  55  81
ENDBRANCH  51  55
ENDBRANCH  50  53
BRANCH  50  84
ATOM     84  CB  ASN A   5      11.518  27.226   7.286  0.00  0.00    +0.114 C 
BRANCH  84  85
ATOM     85  CG  ASN A   5      11.625  26.692   5.867  0.00  0.00    +0.222 C 
ATOM     86  OD1 ASN A   5      12.716  26.368   5.398  0.00  0.00    -0.275 OA
ATOM     87  ND2 ASN A   5      10.501  26.650   5.166  0.00  0.00    -0.329 N 
ATOM     88 HD21 ASN A   5       9.603  26.934   5.606  0.00  0.00    +0.145 HD
ATOM     89 HD22 ASN A   5      10.517  26.333   4.176  0.00  0.00    +0.145 HD
ENDBRANCH  84  85
ENDBRANCH  50  84
ENDBRANCH  46  50
ENDBRANCH   1  48
BRANCH   1  90
ATOM     90  CB  ILE A   6      14.509  27.527  12.211  0.00  0.00    +0.027 C 
ATOM     91  CG2 ILE A   6      14.817  28.275  13.498  0.00  0.00    +0.002 C 
BRANCH  90  92
ATOM     92  CG1 ILE A   6      14.228  26.039  12.455  0.00  0.00    +0.002 C 
ATOM     93  CD1 ILE A   6      15.498  25.221  12.496  0.00  0.00    +0.000 C 
ENDBRANCH  90  92
ENDBRANCH   1  90
TORSDOF 32
REMARK  Name = ../refined-set-2016/4dfg/4dfg_pocket.pdb
REMARK  225 active torsions:
REMARK  status: ('A' for Active; 'I' for Inactive)
REMARK    1  A    between atoms: _1  and  _3
REMARK    2  A    between atoms: _3  and  _4
REMARK    3  A    between atoms: _3  and  _6
REMARK    4  A    between atoms: _6  and  _7
REMARK    5  A    between atoms: _7  and  _8
REMARK    6  A    between atoms: _8  and  _9
REMARK    7  A    between atoms: _18  and  _20
REMARK    8  A    between atoms: _20  and  _21
REMARK    9  A    between atoms: _20  and  _23
REMARK   10  A    between atoms: _23  and  _24
REMARK   11  A    between atoms: _27  and  _29
REMARK   12  A    between atoms: _29  and  _30
REMARK   13  A    between atoms: _29  and  _32
REMARK   14  A    between atoms: _32  and  _33
REMARK   15  A    between atoms: _36  and  _38
REMARK   16  A    between atoms: _38  and  _39
REMARK   17  A    between atoms: _38  and  _41
REMARK   18  A    between atoms: _41  and  _42
REMARK   19  A    between atoms: _45  and  _47
REMARK   20  A    between atoms: _47  and  _48
REMARK   21  A    between atoms: _47  and  _50
REMARK   22  A    between atoms: _50  and  _51
REMARK   23  A    between atoms: _54  and  _56
REMARK   24  A    between atoms: _56  and  _57
REMARK   25  A    between atoms: _59  and  _61
REMARK   26  A    between atoms: _61  and  _62
REMARK   27  A    between atoms: _65  and  _67
REMARK   28  A    between atoms: _67  and  _68
REMARK   29  A    between atoms: _67  and  _70
REMARK   30  A    between atoms: _70  and  _71
REMARK   31  A    between atoms: _74  and  _76
REMARK   32  A    between atoms: _76  and  _77
REMARK   33  A    between atoms: _76  and  _79
REMARK   34  A    between atoms: _79  and  _80
REMARK   35  A    between atoms: _83  and  _85
REMARK   36  A    between atoms: _85  and  _86
REMARK   37  A    between atoms: _85  and  _88
REMARK   38  A    between atoms: _88  and  _89
REMARK   39  A    between atoms: _92  and  _94
REMARK   40  A    between atoms: _94  and  _95
REMARK   41  A    between atoms: _94  and  _97
REMARK   42  A    between atoms: _100  and  _102
REMARK   43  A    between atoms: _102  and  _103
REMARK   44  A    between atoms: _102  and  _105
REMARK   45  A    between atoms: _105  and  _106
REMARK   46  A    between atoms: _106  and  _107
REMARK   47  A    between atoms: _107  and  _108
REMARK   48  A    between atoms: _108  and  _109
REMARK   49  A    between atoms: _113  and  _115
REMARK   50  A    between atoms: _115  and  _116
REMARK   51  A    between atoms: _115  and  _118
REMARK   52  A    between atoms: _118  and  _119
REMARK   53  A    between atoms: _119  and  _120
REMARK   54  A    between atoms: _122  and  _124
REMARK   55  A    between atoms: _124  and  _125
REMARK   56  A    between atoms: _124  and  _127
REMARK   57  A    between atoms: _127  and  _128
REMARK   58  A    between atoms: _131  and  _133
REMARK   59  A    between atoms: _133  and  _134
REMARK   60  A    between atoms: _136  and  _138
REMARK   61  A    between atoms: _138  and  _139
REMARK   62  A    between atoms: _141  and  _143
REMARK   63  A    between atoms: _143  and  _144
REMARK   64  A    between atoms: _143  and  _146
REMARK   65  A    between atoms: _146  and  _147
REMARK   66  A    between atoms: _150  and  _152
REMARK   67  A    between atoms: _152  and  _153
REMARK   68  A    between atoms: _155  and  _157
REMARK   69  A    between atoms: _157  and  _158
REMARK   70  A    between atoms: _160  and  _162
REMARK   71  A    between atoms: _162  and  _163
REMARK   72  A    between atoms: _162  and  _165
REMARK   73  A    between atoms: _165  and  _166
REMARK   74  A    between atoms: _172  and  _174
REMARK   75  A    between atoms: _174  and  _175
REMARK   76  A    between atoms: _174  and  _177
REMARK   77  A    between atoms: _177  and  _178
REMARK   78  A    between atoms: _181  and  _183
REMARK   79  A    between atoms: _183  and  _184
REMARK   80  A    between atoms: _183  and  _186
REMARK   81  A    between atoms: _189  and  _191
REMARK   82  A    between atoms: _191  and  _192
REMARK   83  A    between atoms: _191  and  _194
REMARK   84  A    between atoms: _194  and  _195
REMARK   85  A    between atoms: _199  and  _200
REMARK   86  A    between atoms: _205  and  _207
REMARK   87  A    between atoms: _207  and  _208
REMARK   88  A    between atoms: _207  and  _210
REMARK   89  A    between atoms: _210  and  _211
REMARK   90  A    between atoms: _215  and  _216
REMARK   91  A    between atoms: _221  and  _223
REMARK   92  A    between atoms: _223  and  _224
REMARK   93  A    between atoms: _223  and  _226
REMARK   94  A    between atoms: _229  and  _231
REMARK   95  A    between atoms: _231  and  _232
REMARK   96  A    between atoms: _231  and  _234
REMARK   97  A    between atoms: _234  and  _235
REMARK   98  A    between atoms: _240  and  _242
REMARK   99  A    between atoms: _242  and  _243
REMARK  100  A    between atoms: _242  and  _245
REMARK  101  A    between atoms: _245  and  _246
REMARK  102  A    between atoms: _249  and  _251
REMARK  103  A    between atoms: _251  and  _252
REMARK  104  A    between atoms: _251  and  _254
REMARK  105  A    between atoms: _254  and  _255
REMARK  106  A    between atoms: _258  and  _260
REMARK  107  A    between atoms: _260  and  _261
REMARK  108  A    between atoms: _263  and  _265
REMARK  109  A    between atoms: _265  and  _266
REMARK  110  A    between atoms: _265  and  _268
REMARK  111  A    between atoms: _269  and  _270
REMARK  112  A    between atoms: _270  and  _271
REMARK  113  A    between atoms: _280  and  _282
REMARK  114  A    between atoms: _282  and  _283
REMARK  115  A    between atoms: _282  and  _285
REMARK  116  A    between atoms: _285  and  _286
REMARK  117  A    between atoms: _291  and  _293
REMARK  118  A    between atoms: _293  and  _294
REMARK  119  A    between atoms: _293  and  _296
REMARK  120  A    between atoms: _296  and  _297
REMARK  121  A    between atoms: _297  and  _298
REMARK  122  A    between atoms: _298  and  _299
REMARK  123  A    between atoms: _308  and  _310
REMARK  124  A    between atoms: _310  and  _311
REMARK  125  A    between atoms: _310  and  _313
REMARK  126  A    between atoms: _313  and  _314
REMARK  127  A    between atoms: _317  and  _319
REMARK  128  A    between atoms: _319  and  _320
REMARK  129  A    between atoms: _319  and  _322
REMARK  130  A    between atoms: _322  and  _323
REMARK  131  A    between atoms: _326  and  _328
REMARK  132  A    between atoms: _328  and  _329
REMARK  133  A    between atoms: _328  and  _331
REMARK  134  A    between atoms: _331  and  _332
REMARK  135  A    between atoms: _335  and  _337
REMARK  136  A    between atoms: _337  and  _338
REMARK  137  A    between atoms: _337  and  _340
REMARK  138  A    between atoms: _340  and  _341
REMARK  139  A    between atoms: _344  and  _346
REMARK  140  A    between atoms: _346  and  _347
REMARK  141  A    between atoms: _349  and  _351
REMARK  142  A    between atoms: _351  and  _352
REMARK  143  A    between atoms: _355  and  _357
REMARK  144  A    between atoms: _357  and  _358
REMARK  145  A    between atoms: _357  and  _360
REMARK  146  A    between atoms: _360  and  _361
REMARK  147  A    between atoms: _364  and  _366
REMARK  148  A    between atoms: _366  and  _367
REMARK  149  A    between atoms: _366  and  _369
REMARK  150  A    between atoms: _369  and  _370
REMARK  151  A    between atoms: _373  and  _375
REMARK  152  A    between atoms: _375  and  _376
REMARK  153  A    between atoms: _375  and  _378
REMARK  154  A    between atoms: _378  and  _379
REMARK  155  A    between atoms: _382  and  _384
REMARK  156  A    between atoms: _384  and  _385
REMARK  157  A    between atoms: _384  and  _387
REMARK  158  A    between atoms: _390  and  _392
REMARK  159  A    between atoms: _392  and  _393
REMARK  160  A    between atoms: _392  and  _395
REMARK  161  A    between atoms: _395  and  _396
REMARK  162  A    between atoms: _396  and  _397
REMARK  163  A    between atoms: _397  and  _398
REMARK  164  A    between atoms: _398  and  _399
REMARK  165  A    between atoms: _403  and  _405
REMARK  166  A    between atoms: _405  and  _406
REMARK  167  A    between atoms: _405  and  _408
REMARK  168  A    between atoms: _408  and  _409
REMARK  169  A    between atoms: _409  and  _410
REMARK  170  A    between atoms: _412  and  _414
REMARK  171  A    between atoms: _414  and  _415
REMARK  172  A    between atoms: _414  and  _417
REMARK  173  A    between atoms: _417  and  _418
REMARK  174  A    between atoms: _421  and  _423
REMARK  175  A    between atoms: _423  and  _424
REMARK  176  A    between atoms: _426  and  _428
REMARK  177  A    between atoms: _428  and  _429
REMARK  178  A    between atoms: _431  and  _433
REMARK  179  A    between atoms: _433  and  _434
REMARK  180  A    between atoms: _433  and  _436
REMARK  181  A    between atoms: _436  and  _437
REMARK  182  A    between atoms: _440  and  _442
REMARK  183  A    between atoms: _442  and  _443
REMARK  184  A    between atoms: _445  and  _447
REMARK  185  A    between atoms: _447  and  _448
REMARK  186  A    between atoms: _450  and  _452
REMARK  187  A    between atoms: _452  and  _453
REMARK  188  A    between atoms: _452  and  _455
REMARK  189  A    between atoms: _455  and  _456
REMARK  190  A    between atoms: _462  and  _464
REMARK  191  A    between atoms: _464  and  _465
REMARK  192  A    between atoms: _464  and  _467
REMARK  193  A    between atoms: _467  and  _468
REMARK  194  A    between atoms: _471  and  _473
REMARK  195  A    between atoms: _473  and  _474
REMARK  196  A    between atoms: _473  and  _476
REMARK  197  A    between atoms: _476  and  _477
REMARK  198  A    between atoms: _480  and  _482
REMARK  199  A    between atoms: _482  and  _483
REMARK  200  A    between atoms: _482  and  _485
REMARK  201  A    between atoms: _485  and  _486
REMARK  202  A    between atoms: _490  and  _491
REMARK  203  A    between atoms: _496  and  _498
REMARK  204  A    between atoms: _498  and  _499
REMARK  205  A    between atoms: _498  and  _501
REMARK  206  A    between atoms: _504  and  _506
REMARK  207  A    between atoms: _506  and  _507
REMARK  208  A    between atoms: _506  and  _509
REMARK  209  A    between atoms: _509  and  _510
REMARK  210  A    between atoms: _515  and  _517
REMARK  211  A    between atoms: _517  and  _518
REMARK  212  A    between atoms: _517  and  _520
REMARK  213  A    between atoms: _520  and  _521
REMARK  214  A    between atoms: _524  and  _526
REMARK  215  A    between atoms: _526  and  _527
REMARK  216  A    between atoms: _529  and  _531
REMARK  217  A    between atoms: _531  and  _532
REMARK  218  A    between atoms: _531  and  _534
REMARK  219  A    between atoms: _534  and  _535
REMARK  220  A    between atoms: _535  and  _536
REMARK  221  A    between atoms: _536  and  _537
REMARK  222  A    between atoms: _546  and  _548
REMARK  223  A    between atoms: _548  and  _549
REMARK  224  A    between atoms: _548  and  _551
REMARK  225  A    between atoms: _551  and  _552
REMARK                            x       y       z     vdW  Elec       q    Type
REMARK                         _______ _______ _______ _____ _____    ______ ____
ROOT
ATOM      1  NE  ARG A   1      21.990  29.384  23.532  0.00  0.00    -0.265 N 
ATOM      2  CZ  ARG A   1      22.611  28.224  23.451  0.00  0.00    +0.342 C 
ATOM      3  NH2 ARG A   1      23.878  28.009  23.799  0.00  0.00    -0.292 N 
ATOM      4 HH21 ARG A   1      24.456  28.791  24.168  0.00  0.00    +0.255 HD
ATOM      5 HH22 ARG A   1      24.290  27.059  23.702  0.00  0.00    +0.255 HD
ATOM      6  NH1 ARG A   1      21.935  27.184  22.978  0.00  0.00    -0.292 N 
ATOM      7 HH11 ARG A   1      22.396  26.255  22.901  0.00  0.00    +0.255 HD
ATOM      8 HH12 ARG A   1      20.944  27.298  22.684  0.00  0.00    +0.255 HD
ATOM      9  HE  ARG A   1      21.002  29.361  23.208  0.00  0.00    +0.259 HD
ENDROOT
BRANCH   1  10
ATOM     10  CD  ARG A   1      22.432  30.681  23.989  0.00  0.00    +0.174 C 
BRANCH  10  11
ATOM     11  CG  ARG A   1      21.391  31.732  23.622  0.00  0.00    +0.045 C 
BRANCH  11  12
ATOM     12  CB  ARG A   1      20.505  31.961  24.842  0.00  0.00    +0.029 C 
BRANCH  12  13
ATOM     13  CA  ARG A   1      19.543  33.146  24.700  0.00  0.00    +0.133 C 
BRANCH  13  14
ATOM     14  N   ARG A   1      20.280  34.393  24.593  0.00  0.00    -0.239 NA
ATOM     15  H   ARG A   1      21.318  34.402  24.648  0.00  0.00    +0.142 HD
ENDBRANCH  13  14
BRANCH  13  16
ATOM     16  C   ARG A   1      18.633  33.195  25.908  0.00  0.00    +0.224 C 
ATOM     17  O   ARG A   1      19.060  33.670  26.973  0.00  0.00    -0.287 OA
ENDBRANCH  13  16
ENDBRANCH  12  13
ENDBRANCH  11  12
ENDBRANCH  10  11
ENDBRANCH   1  10
TORSDOF 6
REMARK  Name = ../refined-set-2016/4dfg/4dfg_pocket.pdb
REMARK  225 active torsions:
REMARK  status: ('A' for Active; 'I' for Inactive)
REMARK    1  A    between atoms: _1  and  _3
REMARK    2  A    between atoms: _3  and  _4
REMARK    3  A    between atoms: _3  and  _6
REMARK    4  A    between atoms: _6  and  _7
REMARK    5  A    between atoms: _7  and  _8
REMARK    6  A    between atoms: _8  and  _9
REMARK    7  A    between atoms: _18  and  _20
REMARK    8  A    between atoms: _20  and  _21
REMARK    9  A    between atoms: _20  and  _23
REMARK   10  A    between atoms: _23  and  _24
REMARK   11  A    between atoms: _27  and  _29
REMARK   12  A    between atoms: _29  and  _30
REMARK   13  A    between atoms: _29  and  _32
REMARK   14  A    between atoms: _32  and  _33
REMARK   15  A    between atoms: _36  and  _38
REMARK   16  A    between atoms: _38  and  _39
REMARK   17  A    between atoms: _38  and  _41
REMARK   18  A    between atoms: _41  and  _42
REMARK   19  A    between atoms: _45  and  _47
REMARK   20  A    between atoms: _47  and  _48
REMARK   21  A    between atoms: _47  and  _50
REMARK   22  A    between atoms: _50  and  _51
REMARK   23  A    between atoms: _54  and  _56
REMARK   24  A    between atoms: _56  and  _57
REMARK   25  A    between atoms: _59  and  _61
REMARK   26  A    between atoms: _61  and  _62
REMARK   27  A    between atoms: _65  and  _67
REMARK   28  A    between atoms: _67  and  _68
REMARK   29  A    between atoms: _67  and  _70
REMARK   30  A    between atoms: _70  and  _71
REMARK   31  A    between atoms: _74  and  _76
REMARK   32  A    between atoms: _76  and  _77
REMARK   33  A    between atoms: _76  and  _79
REMARK   34  A    between atoms: _79  and  _80
REMARK   35  A    between atoms: _83  and  _85
REMARK   36  A    between atoms: _85  and  _86
REMARK   37  A    between atoms: _85  and  _88
REMARK   38  A    between atoms: _88  and  _89
REMARK   39  A    between atoms: _92  and  _94
REMARK   40  A    between atoms: _94  and  _95
REMARK   41  A    between atoms: _94  and  _97
REMARK   42  A    between atoms: _100  and  _102
REMARK   43  A    between atoms: _102  and  _103
REMARK   44  A    between atoms: _102  and  _105
REMARK   45  A    between atoms: _105  and  _106
REMARK   46  A    between atoms: _106  and  _107
REMARK   47  A    between atoms: _107  and  _108
REMARK   48  A    between atoms: _108  and  _109
REMARK   49  A    between atoms: _113  and  _115
REMARK   50  A    between atoms: _115  and  _116
REMARK   51  A    between atoms: _115  and  _118
REMARK   52  A    between atoms: _118  and  _119
REMARK   53  A    between atoms: _119  and  _120
REMARK   54  A    between atoms: _122  and  _124
REMARK   55  A    between atoms: _124  and  _125
REMARK   56  A    between atoms: _124  and  _127
REMARK   57  A    between atoms: _127  and  _128
REMARK   58  A    between atoms: _131  and  _133
REMARK   59  A    between atoms: _133  and  _134
REMARK   60  A    between atoms: _136  and  _138
REMARK   61  A    between atoms: _138  and  _139
REMARK   62  A    between atoms: _141  and  _143
REMARK   63  A    between atoms: _143  and  _144
REMARK   64  A    between atoms: _143  and  _146
REMARK   65  A    between atoms: _146  and  _147
REMARK   66  A    between atoms: _150  and  _152
REMARK   67  A    between atoms: _152  and  _153
REMARK   68  A    between atoms: _155  and  _157
REMARK   69  A    between atoms: _157  and  _158
REMARK   70  A    between atoms: _160  and  _162
REMARK   71  A    between atoms: _162  and  _163
REMARK   72  A    between atoms: _162  and  _165
REMARK   73  A    between atoms: _165  and  _166
REMARK   74  A    between atoms: _172  and  _174
REMARK   75  A    between atoms: _174  and  _175
REMARK   76  A    between atoms: _174  and  _177
REMARK   77  A    between atoms: _177  and  _178
REMARK   78  A    between atoms: _181  and  _183
REMARK   79  A    between atoms: _183  and  _184
REMARK   80  A    between atoms: _183  and  _186
REMARK   81  A    between atoms: _189  and  _191
REMARK   82  A    between atoms: _191  and  _192
REMARK   83  A    between atoms: _191  and  _194
REMARK   84  A    between atoms: _194  and  _195
REMARK   85  A    between atoms: _199  and  _200
REMARK   86  A    between atoms: _205  and  _207
REMARK   87  A    between atoms: _207  and  _208
REMARK   88  A    between atoms: _207  and  _210
REMARK   89  A    between atoms: _210  and  _211
REMARK   90  A    between atoms: _215  and  _216
REMARK   91  A    between atoms: _221  and  _223
REMARK   92  A    between atoms: _223  and  _224
REMARK   93  A    between atoms: _223  and  _226
REMARK   94  A    between atoms: _229  and  _231
REMARK   95  A    between atoms: _231  and  _232
REMARK   96  A    between atoms: _231  and  _234
REMARK   97  A    between atoms: _234  and  _235
REMARK   98  A    between atoms: _240  and  _242
REMARK   99  A    between atoms: _242  and  _243
REMARK  100  A    between atoms: _242  and  _245
REMARK  101  A    between atoms: _245  and  _246
REMARK  102  A    between atoms: _249  and  _251
REMARK  103  A    between atoms: _251  and  _252
REMARK  104  A    between atoms: _251  and  _254
REMARK  105  A    between atoms: _254  and  _255
REMARK  106  A    between atoms: _258  and  _260
REMARK  107  A    between atoms: _260  and  _261
REMARK  108  A    between atoms: _263  and  _265
REMARK  109  A    between atoms: _265  and  _266
REMARK  110  A    between atoms: _265  and  _268
REMARK  111  A    between atoms: _269  and  _270
REMARK  112  A    between atoms: _270  and  _271
REMARK  113  A    between atoms: _280  and  _282
REMARK  114  A    between atoms: _282  and  _283
REMARK  115  A    between atoms: _282  and  _285
REMARK  116  A    between atoms: _285  and  _286
REMARK  117  A    between atoms: _291  and  _293
REMARK  118  A    between atoms: _293  and  _294
REMARK  119  A    between atoms: _293  and  _296
REMARK  120  A    between atoms: _296  and  _297
REMARK  121  A    between atoms: _297  and  _298
REMARK  122  A    between atoms: _298  and  _299
REMARK  123  A    between atoms: _308  and  _310
REMARK  124  A    between atoms: _310  and  _311
REMARK  125  A    between atoms: _310  and  _313
REMARK  126  A    between atoms: _313  and  _314
REMARK  127  A    between atoms: _317  and  _319
REMARK  128  A    between atoms: _319  and  _320
REMARK  129  A    between atoms: _319  and  _322
REMARK  130  A    between atoms: _322  and  _323
REMARK  131  A    between atoms: _326  and  _328
REMARK  132  A    between atoms: _328  and  _329
REMARK  133  A    between atoms: _328  and  _331
REMARK  134  A    between atoms: _331  and  _332
REMARK  135  A    between atoms: _335  and  _337
REMARK  136  A    between atoms: _337  and  _338
REMARK  137  A    between atoms: _337  and  _340
REMARK  138  A    between atoms: _340  and  _341
REMARK  139  A    between atoms: _344  and  _346
REMARK  140  A    between atoms: _346  and  _347
REMARK  141  A    between atoms: _349  and  _351
REMARK  142  A    between atoms: _351  and  _352
REMARK  143  A    between atoms: _355  and  _357
REMARK  144  A    between atoms: _357  and  _358
REMARK  145  A    between atoms: _357  and  _360
REMARK  146  A    between atoms: _360  and  _361
REMARK  147  A    between atoms: _364  and  _366
REMARK  148  A    between atoms: _366  and  _367
REMARK  149  A    between atoms: _366  and  _369
REMARK  150  A    between atoms: _369  and  _370
REMARK  151  A    between atoms: _373  and  _375
REMARK  152  A    between atoms: _375  and  _376
REMARK  153  A    between atoms: _375  and  _378
REMARK  154  A    between atoms: _378  and  _379
REMARK  155  A    between atoms: _382  and  _384
REMARK  156  A    between atoms: _384  and  _385
REMARK  157  A    between atoms: _384  and  _387
REMARK  158  A    between atoms: _390  and  _392
REMARK  159  A    between atoms: _392  and  _393
REMARK  160  A    between atoms: _392  and  _395
REMARK  161  A    between atoms: _395  and  _396
REMARK  162  A    between atoms: _396  and  _397
REMARK  163  A    between atoms: _397  and  _398
REMARK  164  A    between atoms: _398  and  _399
REMARK  165  A    between atoms: _403  and  _405
REMARK  166  A    between atoms: _405  and  _406
REMARK  167  A    between atoms: _405  and  _408
REMARK  168  A    between atoms: _408  and  _409
REMARK  169  A    between atoms: _409  and  _410
REMARK  170  A    between atoms: _412  and  _414
REMARK  171  A    between atoms: _414  and  _415
REMARK  172  A    between atoms: _414  and  _417
REMARK  173  A    between atoms: _417  and  _418
REMARK  174  A    between atoms: _421  and  _423
REMARK  175  A    between atoms: _423  and  _424
REMARK  176  A    between atoms: _426  and  _428
REMARK  177  A    between atoms: _428  and  _429
REMARK  178  A    between atoms: _431  and  _433
REMARK  179  A    between atoms: _433  and  _434
REMARK  180  A    between atoms: _433  and  _436
REMARK  181  A    between atoms: _436  and  _437
REMARK  182  A    between atoms: _440  and  _442
REMARK  183  A    between atoms: _442  and  _443
REMARK  184  A    between atoms: _445  and  _447
REMARK  185  A    between atoms: _447  and  _448
REMARK  186  A    between atoms: _450  and  _452
REMARK  187  A    between atoms: _452  and  _453
REMARK  188  A    between atoms: _452  and  _455
REMARK  189  A    between atoms: _455  and  _456
REMARK  190  A    between atoms: _462  and  _464
REMARK  191  A    between atoms: _464  and  _465
REMARK  192  A    between atoms: _464  and  _467
REMARK  193  A    between atoms: _467  and  _468
REMARK  194  A    between atoms: _471  and  _473
REMARK  195  A    between atoms: _473  and  _474
REMARK  196  A    between atoms: _473  and  _476
REMARK  197  A    between atoms: _476  and  _477
REMARK  198  A    between atoms: _480  and  _482
REMARK  199  A    between atoms: _482  and  _483
REMARK  200  A    between atoms: _482  and  _485
REMARK  201  A    between atoms: _485  and  _486
REMARK  202  A    between atoms: _490  and  _491
REMARK  203  A    between atoms: _496  and  _498
REMARK  204  A    between atoms: _498  and  _499
REMARK  205  A    between atoms: _498  and  _501
REMARK  206  A    between atoms: _504  and  _506
REMARK  207  A    between atoms: _506  and  _507
REMARK  208  A    between atoms: _506  and  _509
REMARK  209  A    between atoms: _509  and  _510
REMARK  210  A    between atoms: _515  and  _517
REMARK  211  A    between atoms: _517  and  _518
REMARK  212  A    between atoms: _517  and  _520
REMARK  213  A    between atoms: _520  and  _521
REMARK  214  A    between atoms: _524  and  _526
REMARK  215  A    between atoms: _526  and  _527
REMARK  216  A    between atoms: _529  and  _531
REMARK  217  A    between atoms: _531  and  _532
REMARK  218  A    between atoms: _531  and  _534
REMARK  219  A    between atoms: _534  and  _535
REMARK  220  A    between atoms: _535  and  _536
REMARK  221  A    between atoms: _536  and  _537
REMARK  222  A    between atoms: _546  and  _548
REMARK  223  A    between atoms: _548  and  _549
REMARK  224  A    between atoms: _548  and  _551
REMARK  225  A    between atoms: _551  and  _552
REMARK                            x       y       z     vdW  Elec       q    Type
REMARK                         _______ _______ _______ _____ _____    ______ ____
ROOT
ATOM      1  C   GLY A   5      10.982  23.909  18.761  0.00  0.00    +0.243 C 
ATOM      2  N   ALA A   6      10.944  23.571  20.013  0.00  0.00    -0.297 N 
ATOM      3  H   ALA A   6      10.852  24.330  20.718  0.00  0.00    +0.150 HD
ATOM      4  O   GLY A   5      11.118  23.065  17.838  0.00  0.00    -0.273 OA
ENDROOT
BRANCH   2   5
ATOM      5  CA  ALA A   6      11.021  22.218  20.491  0.00  0.00    +0.149 C 
ATOM      6  CB  ALA A   6      12.011  22.141  21.659  0.00  0.00    +0.031 C 
BRANCH   5   7
ATOM      7  C   ALA A   6       9.644  21.742  20.959  0.00  0.00    +0.241 C 
ATOM      8  O   ALA A   6       9.030  22.371  21.797  0.00  0.00    -0.273 OA
ATOM      9  N   ASP A   7       9.170  20.599  20.411  0.00  0.00    -0.297 N 
ATOM     10  H   ASP A   7       9.710  20.095  19.679  0.00  0.00    +0.150 HD
BRANCH   9  11
ATOM     11  CA  ASP A   7       7.910  20.103  20.864  0.00  0.00    +0.160 C 
BRANCH  11  12
ATOM     12  C   ASP A   7       7.993  19.566  22.295  0.00  0.00    +0.241 C 
ATOM     13  O   ASP A   7       7.022  19.649  23.034  0.00  0.00    -0.273 OA
ATOM     14  N   ASP A   8       9.149  19.011  22.615  0.00  0.00    -0.297 N 
ATOM     15  H   ASP A   8       9.920  19.162  21.934  0.00  0.00    +0.150 HD
BRANCH  14  16
ATOM     16  CA  ASP A   8       9.493  18.223  23.779  0.00  0.00    +0.160 C 
BRANCH  16  17
ATOM     17  C   ASP A   8      10.683  18.782  24.558  0.00  0.00    +0.241 C 
ATOM     18  N   THR A   9      10.695  18.514  25.849  0.00  0.00    -0.295 N 
ATOM     19  H   THR A   9       9.898  17.979  26.249  0.00  0.00    +0.150 HD
ATOM     20  O   ASP A   8      11.556  19.405  23.960  0.00  0.00    -0.273 OA
BRANCH  18  21
ATOM     21  CA  THR A   9      11.763  18.928  26.739  0.00  0.00    +0.176 C 
BRANCH  21  22
ATOM     22  C   THR A   9      12.849  17.880  26.743  0.00  0.00    +0.243 C 
ATOM     23  O   THR A   9      12.512  16.674  26.904  0.00  0.00    -0.273 OA
ATOM     24  N   VAL A  10      14.083  18.275  26.504  0.00  0.00    -0.298 N 
ATOM     25  H   VAL A  10      14.270  19.295  26.428  0.00  0.00    +0.150 HD
BRANCH  24  26
ATOM     26  CA  VAL A  10      15.194  17.356  26.341  0.00  0.00    +0.137 C 
BRANCH  26  27
ATOM     27  CB  VAL A  10      15.695  17.280  24.878  0.00  0.00    +0.026 C 
ATOM     28  CG2 VAL A  10      16.649  16.080  24.825  0.00  0.00    +0.002 C 
ATOM     29  CG1 VAL A  10      14.560  17.169  23.907  0.00  0.00    +0.002 C 
ENDBRANCH  26  27
BRANCH  26  30
ATOM     30  C   VAL A  10      16.336  17.821  27.259  0.00  0.00    +0.227 C 
ATOM     31  O   VAL A  10      16.737  18.970  27.135  0.00  0.00    -0.286 OA
ENDBRANCH  26  30
ENDBRANCH  24  26
ENDBRANCH  21  22
BRANCH  21  32
ATOM     32  CB  THR A   9      11.153  19.122  28.139  0.00  0.00    +0.137 C 
ATOM     33  CG2 THR A   9      12.191  19.361  29.211  0.00  0.00    +0.034 C 
BRANCH  32  34
ATOM     34  OG1 THR A   9      10.268  20.276  28.047  0.00  0.00    -0.382 OA
ATOM     35  HG1 THR A   9       9.564  20.097  27.375  0.00  0.00    +0.210 HD
ENDBRANCH  32  34
ENDBRANCH  21  32
ENDBRANCH  18  21
ENDBRANCH  16  17
BRANCH  16  36
ATOM     36  CB  ASP A   8       9.927  16.807  23.400  0.00  0.00    +0.143 C 
BRANCH  36  37
ATOM     37  CG  ASP A   8       9.156  16.144  22.298  0.00  0.00    +0.367 C 
ATOM     38  OD2 ASP A   8       7.922  16.002  22.543  0.00  0.00    -0.246 OA
ATOM     39  OD1 ASP A   8       9.726  15.755  21.251  0.00  0.00    -0.246 OA
ENDBRANCH  36  37
ENDBRANCH  16  36
ENDBRANCH  14  16
ENDBRANCH  11  12
BRANCH  11  40
ATOM     40  CB  ASP A   7       7.464  18.938  19.960  0.00  0.00    +0.143 C 
BRANCH  40  41
ATOM     41  CG  ASP A   7       7.274  19.204  18.486  0.00  0.00    +0.367 C 
ATOM     42  OD2 ASP A   7       7.059  20.350  18.070  0.00  0.00    -0.246 OA
ATOM     43  OD1 ASP A   7       7.358  18.191  17.729  0.00  0.00    -0.246 OA
ENDBRANCH  40  41
ENDBRANCH  11  40
ENDBRANCH   9  11
ENDBRANCH   5   7
ENDBRANCH   2   5
BRANCH   1  44
ATOM     44  CA  GLY A   5      10.858  25.364  18.388  0.00  0.00    +0.176 C 
BRANCH  44  47
ATOM     45  C   THR A   4       9.512  26.538  20.069  0.00  0.00    +0.243 C 
ATOM     46  O   THR A   4       8.464  26.084  19.617  0.00  0.00    -0.273 OA
ATOM     47  N   GLY A   5      10.679  26.270  19.524  0.00  0.00    -0.295 N 
ATOM     48  H   GLY A   5      11.523  26.728  19.923  0.00  0.00    +0.150 HD
BRANCH  45  49
ATOM     49  CA  THR A   4       9.435  27.399  21.306  0.00  0.00    +0.176 C 
BRANCH  49  52
ATOM     50  C   ASP A   3      11.247  26.503  22.606  0.00  0.00    +0.241 C 
ATOM     51  O   ASP A   3      10.704  25.390  22.591  0.00  0.00    -0.273 OA
ATOM     52  N   THR A   4      10.707  27.541  21.957  0.00  0.00    -0.295 N 
ATOM     53  H   THR A   4      11.209  28.451  21.924  0.00  0.00    +0.150 HD
BRANCH  50  54
ATOM     54  CA  ASP A   3      12.583  26.790  23.263  0.00  0.00    +0.160 C 
BRANCH  54  56
ATOM     55  C   LEU A   2      13.073  28.128  25.218  0.00  0.00    +0.241 C 
ATOM     56  N   ASP A   3      12.489  27.055  24.697  0.00  0.00    -0.297 N 
ATOM     57  H   ASP A   3      11.963  26.401  25.312  0.00  0.00    +0.150 HD
ATOM     58  O   LEU A   2      13.461  29.063  24.548  0.00  0.00    -0.273 OA
BRANCH  55  59
ATOM     59  CA  LEU A   2      13.192  28.177  26.743  0.00  0.00    +0.149 C 
BRANCH  59  61
ATOM     60  C   LEU A   1      15.305  27.043  27.010  0.00  0.00    +0.238 C 
ATOM     61  N   LEU A   2      14.603  28.159  27.094  0.00  0.00    -0.297 N 
ATOM     62  H   LEU A   2      15.065  29.034  27.415  0.00  0.00    +0.150 HD
ATOM     63  O   LEU A   1      14.794  25.961  26.751  0.00  0.00    -0.274 OA
BRANCH  60  64
ATOM     64  CA  LEU A   1      16.813  27.134  27.210  0.00  0.00    +0.145 C 
BRANCH  64  65
ATOM     65  N   LEU A   1      17.269  26.218  28.221  0.00  0.00    -0.238 NA
ATOM     66  H   LEU A   1      17.438  25.234  27.932  0.00  0.00    +0.142 HD
ENDBRANCH  64  65
BRANCH  64  67
ATOM     67  CB  LEU A   1      17.614  26.789  25.941  0.00  0.00    +0.026 C 
BRANCH  67  68
ATOM     68  CG  LEU A   1      17.480  27.585  24.699  0.00  0.00    +0.002 C 
ATOM     69  CD2 LEU A   1      18.005  28.962  24.930  0.00  0.00    +0.000 C 
ATOM     70  CD1 LEU A   1      18.283  26.905  23.588  0.00  0.00    +0.000 C 
ENDBRANCH  67  68
ENDBRANCH  64  67
ENDBRANCH  60  64
ENDBRANCH  59  61
BRANCH  59  71
ATOM     71  CB  LEU A   2      12.527  29.400  27.313  0.00  0.00    +0.029 C 
BRANCH  71  72
ATOM     72  CG  LEU A   2      12.601  29.533  28.843  0.00  0.00    +0.002 C 
ATOM     73  CD2 LEU A   2      12.050  28.301  29.528  0.00  0.00    +0.000 C 
ATOM     74  CD1 LEU A   2      11.814  30.749  29.294  0.00  0.00    +0.000 C 
ENDBRANCH  71  72
ENDBRANCH  59  71
ENDBRANCH  55  59
ENDBRANCH  54  56
BRANCH  54  75
ATOM     75  CB  ASP A   3      13.524  25.615  23.051  0.00  0.00    +0.143 C 
BRANCH  75  76
ATOM     76  CG  ASP A   3      13.902  25.442  21.584  0.00  0.00    +0.367 C 
ATOM     77  OD2 ASP A   3      14.820  24.616  21.402  0.00  0.00    -0.246 OA
ATOM     78  OD1 ASP A   3      13.279  26.117  20.727  0.00  0.00    -0.246 OA
ENDBRANCH  75  76
ENDBRANCH  54  75
ENDBRANCH  50  54
ENDBRANCH  49  52
BRANCH  49  79
ATOM     79  CB  THR A   4       8.865  28.780  20.926  0.00  0.00    +0.137 C 
ATOM     80  CG2 THR A   4       8.637  29.659  22.137  0.00  0.00    +0.034 C 
BRANCH  79  81
ATOM     81  OG1 THR A   4       9.761  29.448  20.050  0.00  0.00    -0.382 OA
ATOM     82  HG1 THR A   4       9.883  28.907  19.230  0.00  0.00    +0.210 HD
ENDBRANCH  79  81
ENDBRANCH  49  79
ENDBRANCH  45  49
ENDBRANCH  44  47
ENDBRANCH   1  44
TORSDOF 35
REMARK  Name = ../refined-set-2016/4dfg/4dfg_pocket.pdb
REMARK  225 active torsions:
REMARK  status: ('A' for Active; 'I' for Inactive)
REMARK    1  A    between atoms: _1  and  _3
REMARK    2  A    between atoms: _3  and  _4
REMARK    3  A    between atoms: _3  and  _6
REMARK    4  A    between atoms: _6  and  _7
REMARK    5  A    between atoms: _7  and  _8
REMARK    6  A    between atoms: _8  and  _9
REMARK    7  A    between atoms: _18  and  _20
REMARK    8  A    between atoms: _20  and  _21
REMARK    9  A    between atoms: _20  and  _23
REMARK   10  A    between atoms: _23  and  _24
REMARK   11  A    between atoms: _27  and  _29
REMARK   12  A    between atoms: _29  and  _30
REMARK   13  A    between atoms: _29  and  _32
REMARK   14  A    between atoms: _32  and  _33
REMARK   15  A    between atoms: _36  and  _38
REMARK   16  A    between atoms: _38  and  _39
REMARK   17  A    between atoms: _38  and  _41
REMARK   18  A    between atoms: _41  and  _42
REMARK   19  A    between atoms: _45  and  _47
REMARK   20  A    between atoms: _47  and  _48
REMARK   21  A    between atoms: _47  and  _50
REMARK   22  A    between atoms: _50  and  _51
REMARK   23  A    between atoms: _54  and  _56
REMARK   24  A    between atoms: _56  and  _57
REMARK   25  A    between atoms: _59  and  _61
REMARK   26  A    between atoms: _61  and  _62
REMARK   27  A    between atoms: _65  and  _67
REMARK   28  A    between atoms: _67  and  _68
REMARK   29  A    between atoms: _67  and  _70
REMARK   30  A    between atoms: _70  and  _71
REMARK   31  A    between atoms: _74  and  _76
REMARK   32  A    between atoms: _76  and  _77
REMARK   33  A    between atoms: _76  and  _79
REMARK   34  A    between atoms: _79  and  _80
REMARK   35  A    between atoms: _83  and  _85
REMARK   36  A    between atoms: _85  and  _86
REMARK   37  A    between atoms: _85  and  _88
REMARK   38  A    between atoms: _88  and  _89
REMARK   39  A    between atoms: _92  and  _94
REMARK   40  A    between atoms: _94  and  _95
REMARK   41  A    between atoms: _94  and  _97
REMARK   42  A    between atoms: _100  and  _102
REMARK   43  A    between atoms: _102  and  _103
REMARK   44  A    between atoms: _102  and  _105
REMARK   45  A    between atoms: _105  and  _106
REMARK   46  A    between atoms: _106  and  _107
REMARK   47  A    between atoms: _107  and  _108
REMARK   48  A    between atoms: _108  and  _109
REMARK   49  A    between atoms: _113  and  _115
REMARK   50  A    between atoms: _115  and  _116
REMARK   51  A    between atoms: _115  and  _118
REMARK   52  A    between atoms: _118  and  _119
REMARK   53  A    between atoms: _119  and  _120
REMARK   54  A    between atoms: _122  and  _124
REMARK   55  A    between atoms: _124  and  _125
REMARK   56  A    between atoms: _124  and  _127
REMARK   57  A    between atoms: _127  and  _128
REMARK   58  A    between atoms: _131  and  _133
REMARK   59  A    between atoms: _133  and  _134
REMARK   60  A    between atoms: _136  and  _138
REMARK   61  A    between atoms: _138  and  _139
REMARK   62  A    between atoms: _141  and  _143
REMARK   63  A    between atoms: _143  and  _144
REMARK   64  A    between atoms: _143  and  _146
REMARK   65  A    between atoms: _146  and  _147
REMARK   66  A    between atoms: _150  and  _152
REMARK   67  A    between atoms: _152  and  _153
REMARK   68  A    between atoms: _155  and  _157
REMARK   69  A    between atoms: _157  and  _158
REMARK   70  A    between atoms: _160  and  _162
REMARK   71  A    between atoms: _162  and  _163
REMARK   72  A    between atoms: _162  and  _165
REMARK   73  A    between atoms: _165  and  _166
REMARK   74  A    between atoms: _172  and  _174
REMARK   75  A    between atoms: _174  and  _175
REMARK   76  A    between atoms: _174  and  _177
REMARK   77  A    between atoms: _177  and  _178
REMARK   78  A    between atoms: _181  and  _183
REMARK   79  A    between atoms: _183  and  _184
REMARK   80  A    between atoms: _183  and  _186
REMARK   81  A    between atoms: _189  and  _191
REMARK   82  A    between atoms: _191  and  _192
REMARK   83  A    between atoms: _191  and  _194
REMARK   84  A    between atoms: _194  and  _195
REMARK   85  A    between atoms: _199  and  _200
REMARK   86  A    between atoms: _205  and  _207
REMARK   87  A    between atoms: _207  and  _208
REMARK   88  A    between atoms: _207  and  _210
REMARK   89  A    between atoms: _210  and  _211
REMARK   90  A    between atoms: _215  and  _216
REMARK   91  A    between atoms: _221  and  _223
REMARK   92  A    between atoms: _223  and  _224
REMARK   93  A    between atoms: _223  and  _226
REMARK   94  A    between atoms: _229  and  _231
REMARK   95  A    between atoms: _231  and  _232
REMARK   96  A    between atoms: _231  and  _234
REMARK   97  A    between atoms: _234  and  _235
REMARK   98  A    between atoms: _240  and  _242
REMARK   99  A    between atoms: _242  and  _243
REMARK  100  A    between atoms: _242  and  _245
REMARK  101  A    between atoms: _245  and  _246
REMARK  102  A    between atoms: _249  and  _251
REMARK  103  A    between atoms: _251  and  _252
REMARK  104  A    between atoms: _251  and  _254
REMARK  105  A    between atoms: _254  and  _255
REMARK  106  A    between atoms: _258  and  _260
REMARK  107  A    between atoms: _260  and  _261
REMARK  108  A    between atoms: _263  and  _265
REMARK  109  A    between atoms: _265  and  _266
REMARK  110  A    between atoms: _265  and  _268
REMARK  111  A    between atoms: _269  and  _270
REMARK  112  A    between atoms: _270  and  _271
REMARK  113  A    between atoms: _280  and  _282
REMARK  114  A    between atoms: _282  and  _283
REMARK  115  A    between atoms: _282  and  _285
REMARK  116  A    between atoms: _285  and  _286
REMARK  117  A    between atoms: _291  and  _293
REMARK  118  A    between atoms: _293  and  _294
REMARK  119  A    between atoms: _293  and  _296
REMARK  120  A    between atoms: _296  and  _297
REMARK  121  A    between atoms: _297  and  _298
REMARK  122  A    between atoms: _298  and  _299
REMARK  123  A    between atoms: _308  and  _310
REMARK  124  A    between atoms: _310  and  _311
REMARK  125  A    between atoms: _310  and  _313
REMARK  126  A    between atoms: _313  and  _314
REMARK  127  A    between atoms: _317  and  _319
REMARK  128  A    between atoms: _319  and  _320
REMARK  129  A    between atoms: _319  and  _322
REMARK  130  A    between atoms: _322  and  _323
REMARK  131  A    between atoms: _326  and  _328
REMARK  132  A    between atoms: _328  and  _329
REMARK  133  A    between atoms: _328  and  _331
REMARK  134  A    between atoms: _331  and  _332
REMARK  135  A    between atoms: _335  and  _337
REMARK  136  A    between atoms: _337  and  _338
REMARK  137  A    between atoms: _337  and  _340
REMARK  138  A    between atoms: _340  and  _341
REMARK  139  A    between atoms: _344  and  _346
REMARK  140  A    between atoms: _346  and  _347
REMARK  141  A    between atoms: _349  and  _351
REMARK  142  A    between atoms: _351  and  _352
REMARK  143  A    between atoms: _355  and  _357
REMARK  144  A    between atoms: _357  and  _358
REMARK  145  A    between atoms: _357  and  _360
REMARK  146  A    between atoms: _360  and  _361
REMARK  147  A    between atoms: _364  and  _366
REMARK  148  A    between atoms: _366  and  _367
REMARK  149  A    between atoms: _366  and  _369
REMARK  150  A    between atoms: _369  and  _370
REMARK  151  A    between atoms: _373  and  _375
REMARK  152  A    between atoms: _375  and  _376
REMARK  153  A    between atoms: _375  and  _378
REMARK  154  A    between atoms: _378  and  _379
REMARK  155  A    between atoms: _382  and  _384
REMARK  156  A    between atoms: _384  and  _385
REMARK  157  A    between atoms: _384  and  _387
REMARK  158  A    between atoms: _390  and  _392
REMARK  159  A    between atoms: _392  and  _393
REMARK  160  A    between atoms: _392  and  _395
REMARK  161  A    between atoms: _395  and  _396
REMARK  162  A    between atoms: _396  and  _397
REMARK  163  A    between atoms: _397  and  _398
REMARK  164  A    between atoms: _398  and  _399
REMARK  165  A    between atoms: _403  and  _405
REMARK  166  A    between atoms: _405  and  _406
REMARK  167  A    between atoms: _405  and  _408
REMARK  168  A    between atoms: _408  and  _409
REMARK  169  A    between atoms: _409  and  _410
REMARK  170  A    between atoms: _412  and  _414
REMARK  171  A    between atoms: _414  and  _415
REMARK  172  A    between atoms: _414  and  _417
REMARK  173  A    between atoms: _417  and  _418
REMARK  174  A    between atoms: _421  and  _423
REMARK  175  A    between atoms: _423  and  _424
REMARK  176  A    between atoms: _426  and  _428
REMARK  177  A    between atoms: _428  and  _429
REMARK  178  A    between atoms: _431  and  _433
REMARK  179  A    between atoms: _433  and  _434
REMARK  180  A    between atoms: _433  and  _436
REMARK  181  A    between atoms: _436  and  _437
REMARK  182  A    between atoms: _440  and  _442
REMARK  183  A    between atoms: _442  and  _443
REMARK  184  A    between atoms: _445  and  _447
REMARK  185  A    between atoms: _447  and  _448
REMARK  186  A    between atoms: _450  and  _452
REMARK  187  A    between atoms: _452  and  _453
REMARK  188  A    between atoms: _452  and  _455
REMARK  189  A    between atoms: _455  and  _456
REMARK  190  A    between atoms: _462  and  _464
REMARK  191  A    between atoms: _464  and  _465
REMARK  192  A    between atoms: _464  and  _467
REMARK  193  A    between atoms: _467  and  _468
REMARK  194  A    between atoms: _471  and  _473
REMARK  195  A    between atoms: _473  and  _474
REMARK  196  A    between atoms: _473  and  _476
REMARK  197  A    between atoms: _476  and  _477
REMARK  198  A    between atoms: _480  and  _482
REMARK  199  A    between atoms: _482  and  _483
REMARK  200  A    between atoms: _482  and  _485
REMARK  201  A    between atoms: _485  and  _486
REMARK  202  A    between atoms: _490  and  _491
REMARK  203  A    between atoms: _496  and  _498
REMARK  204  A    between atoms: _498  and  _499
REMARK  205  A    between atoms: _498  and  _501
REMARK  206  A    between atoms: _504  and  _506
REMARK  207  A    between atoms: _506  and  _507
REMARK  208  A    between atoms: _506  and  _509
REMARK  209  A    between atoms: _509  and  _510
REMARK  210  A    between atoms: _515  and  _517
REMARK  211  A    between atoms: _517  and  _518
REMARK  212  A    between atoms: _517  and  _520
REMARK  213  A    between atoms: _520  and  _521
REMARK  214  A    between atoms: _524  and  _526
REMARK  215  A    between atoms: _526  and  _527
REMARK  216  A    between atoms: _529  and  _531
REMARK  217  A    between atoms: _531  and  _532
REMARK  218  A    between atoms: _531  and  _534
REMARK  219  A    between atoms: _534  and  _535
REMARK  220  A    between atoms: _535  and  _536
REMARK  221  A    between atoms: _536  and  _537
REMARK  222  A    between atoms: _546  and  _548
REMARK  223  A    between atoms: _548  and  _549
REMARK  224  A    between atoms: _548  and  _551
REMARK  225  A    between atoms: _551  and  _552
REMARK                            x       y       z     vdW  Elec       q    Type
REMARK                         _______ _______ _______ _____ _____    ______ ____
ROOT
ATOM      1  C   GLY A   5      17.448  18.294  13.857  0.00  0.00    +0.243 C 
ATOM      2  N   ILE A   6      18.189  19.392  13.997  0.00  0.00    -0.297 N 
ATOM      3  H   ILE A   6      18.373  19.830  14.922  0.00  0.00    +0.150 HD
ATOM      4  O   GLY A   5      17.421  17.623  12.801  0.00  0.00    -0.273 OA
ENDROOT
BRANCH   2   5
ATOM      5  CA  ILE A   6      18.715  19.925  12.767  0.00  0.00    +0.149 C 
BRANCH   5   6
ATOM      6  C   ILE A   6      19.727  19.031  12.099  0.00  0.00    +0.241 C 
ATOM      7  N   GLY A   7      20.486  18.210  12.806  0.00  0.00    -0.295 N 
ATOM      8  H   GLY A   7      20.336  18.200  13.835  0.00  0.00    +0.150 HD
ATOM      9  O   ILE A   6      19.808  19.034  10.880  0.00  0.00    -0.273 OA
BRANCH   7  10
ATOM     10  CA  GLY A   7      21.492  17.336  12.291  0.00  0.00    +0.176 C 
BRANCH  10  11
ATOM     11  C   GLY A   7      21.071  15.917  12.085  0.00  0.00    +0.243 C 
ATOM     12  N   GLY A   8      19.832  15.582  12.318  0.00  0.00    -0.295 N 
ATOM     13  H   GLY A   8      19.167  16.333  12.593  0.00  0.00    +0.150 HD
ATOM     14  O   GLY A   7      21.897  15.096  11.697  0.00  0.00    -0.273 OA
BRANCH  12  15
ATOM     15  CA  GLY A   8      19.323  14.220  12.217  0.00  0.00    +0.176 C 
BRANCH  15  16
ATOM     16  C   GLY A   8      18.706  13.777  13.515  0.00  0.00    +0.243 C 
ATOM     17  O   GLY A   8      18.406  14.535  14.406  0.00  0.00    -0.273 OA
ATOM     18  N   PHE A   9      18.492  12.480  13.601  0.00  0.00    -0.297 N 
ATOM     19  H   PHE A   9      18.931  11.861  12.890  0.00  0.00    +0.150 HD
BRANCH  18  20
ATOM     20  CA  PHE A   9      17.676  11.867  14.636  0.00  0.00    +0.153 C 
BRANCH  20  21
ATOM     21  C   PHE A   9      18.550  11.243  15.705  0.00  0.00    +0.241 C 
ATOM     22  N   ILE A  10      18.146  11.340  16.964  0.00  0.00    -0.298 N 
ATOM     23  H   ILE A  10      17.293  11.898  17.172  0.00  0.00    +0.150 HD
ATOM     24  O   PHE A   9      19.596  10.654  15.370  0.00  0.00    -0.273 OA
BRANCH  22  25
ATOM     25  CA  ILE A  10      18.845  10.699  18.068  0.00  0.00    +0.137 C 
BRANCH  25  26
ATOM     26  C   ILE A  10      17.826   9.897  18.883  0.00  0.00    +0.227 C 
ATOM     27  O   ILE A  10      16.619  10.213  18.880  0.00  0.00    -0.286 OA
ENDBRANCH  25  26
BRANCH  25  28
ATOM     28  CB  ILE A  10      19.556  11.679  19.043  0.00  0.00    +0.026 C 
ATOM     29  CG2 ILE A  10      20.720  12.425  18.404  0.00  0.00    +0.002 C 
BRANCH  28  30
ATOM     30  CG1 ILE A  10      18.618  12.677  19.727  0.00  0.00    +0.002 C 
ATOM     31  CD1 ILE A  10      19.072  13.532  20.884  0.00  0.00    +0.000 C 
ENDBRANCH  28  30
ENDBRANCH  25  28
ENDBRANCH  22  25
ENDBRANCH  20  21
BRANCH  20  32
ATOM     32  CB  PHE A   9      16.803  10.784  13.949  0.00  0.00    +0.055 C 
BRANCH  32  33
ATOM     33  CG  PHE A   9      15.518  11.292  13.344  0.00  0.00    -0.020 A 
ATOM     34  CD2 PHE A   9      14.318  11.295  14.039  0.00  0.00    -0.004 A 
ATOM     35  CE2 PHE A   9      13.143  11.784  13.474  0.00  0.00    -0.000 A 
ATOM     36  CZ  PHE A   9      13.147  12.304  12.198  0.00  0.00    -0.000 A 
ATOM     37  CE1 PHE A   9      14.344  12.294  11.519  0.00  0.00    -0.000 A 
ATOM     38  CD1 PHE A   9      15.516  11.800  12.064  0.00  0.00    -0.004 A 
ENDBRANCH  32  33
ENDBRANCH  20  32
ENDBRANCH  18  20
ENDBRANCH  15  16
ENDBRANCH  12  15
ENDBRANCH  10  11
ENDBRANCH   7  10
ENDBRANCH   5   6
BRANCH   5  39
ATOM     39  CB  ILE A   6      19.355  21.303  13.019  0.00  0.00    +0.027 C 
ATOM     40  CG2 ILE A   6      20.843  21.162  13.167  0.00  0.00    +0.002 C 
BRANCH  39  41
ATOM     41  CG1 ILE A   6      18.919  22.246  11.890  0.00  0.00    +0.002 C 
ATOM     42  CD1 ILE A   6      19.104  23.704  12.232  0.00  0.00    +0.000 C 
ENDBRANCH  39  41
ENDBRANCH   5  39
ENDBRANCH   2   5
BRANCH   1  43
ATOM     43  CA  GLY A   5      16.711  17.901  15.118  0.00  0.00    +0.176 C 
BRANCH  43  45
ATOM     44  C   GLY A   4      15.036  16.140  14.889  0.00  0.00    +0.243 C 
ATOM     45  N   GLY A   5      16.294  16.533  15.053  0.00  0.00    -0.295 N 
ATOM     46  H   GLY A   5      17.025  15.798  15.140  0.00  0.00    +0.150 HD
ATOM     47  O   GLY A   4      14.094  16.901  14.758  0.00  0.00    -0.273 OA
BRANCH  44  48
ATOM     48  CA  GLY A   4      14.794  14.655  14.857  0.00  0.00    +0.176 C 
BRANCH  48  51
ATOM     49  C   ILE A   3      14.577  13.386  16.907  0.00  0.00    +0.241 C 
ATOM     50  O   ILE A   3      15.745  13.027  16.888  0.00  0.00    -0.273 OA
ATOM     51  N   GLY A   4      14.047  14.220  16.019  0.00  0.00    -0.295 N 
ATOM     52  H   GLY A   4      13.077  14.567  16.161  0.00  0.00    +0.150 HD
BRANCH  49  53
ATOM     53  CA  ILE A   3      13.635  12.917  17.993  0.00  0.00    +0.149 C 
BRANCH  53  55
ATOM     54  C   MET A   2      13.069  10.595  18.287  0.00  0.00    +0.241 C 
ATOM     55  N   ILE A   3      13.995  11.519  18.317  0.00  0.00    -0.297 N 
ATOM     56  H   ILE A   3      14.974  11.273  18.566  0.00  0.00    +0.150 HD
ATOM     57  O   MET A   2      11.880  10.796  18.050  0.00  0.00    -0.273 OA
BRANCH  54  58
ATOM     58  CA  MET A   2      13.545   9.180  18.564  0.00  0.00    +0.149 C 
BRANCH  58  61
ATOM     59  C   LYS A   1      12.870   8.239  20.703  0.00  0.00    +0.238 C 
ATOM     60  O   LYS A   1      14.006   8.280  21.165  0.00  0.00    -0.274 OA
ATOM     61  N   MET A   2      12.583   8.553  19.467  0.00  0.00    -0.297 N 
ATOM     62  H   MET A   2      11.628   8.347  19.111  0.00  0.00    +0.150 HD
BRANCH  59  63
ATOM     63  CA  LYS A   1      11.690   7.809  21.561  0.00  0.00    +0.145 C 
BRANCH  63  64
ATOM     64  N   LYS A   1      12.151   6.803  22.479  0.00  0.00    -0.238 NA
ATOM     65  H   LYS A   1      13.158   6.797  22.739  0.00  0.00    +0.142 HD
ENDBRANCH  63  64
BRANCH  63  66
ATOM     66  CB  LYS A   1      11.081   9.034  22.238  0.00  0.00    +0.026 C 
BRANCH  66  67
ATOM     67  CG  LYS A   1      10.179   9.888  21.347  0.00  0.00    -0.000 C 
BRANCH  67  68
ATOM     68  CD  LYS A   1       9.810  11.171  22.076  0.00  0.00    -0.024 C 
BRANCH  68  69
ATOM     69  CE  LYS A   1       8.929  12.106  21.284  0.00  0.00    -0.086 C 
BRANCH  69  70
ATOM     70  NZ  LYS A   1       7.751  11.450  20.678  0.00  0.00    +0.380 N 
ATOM     71  HZ1 LYS A   1       7.163  11.034  21.428  0.00  0.00    -0.089 HD
ATOM     72  HZ2 LYS A   1       7.196  12.155  20.152  0.00  0.00    -0.089 HD
ATOM     73  HZ3 LYS A   1       8.068  10.702  20.029  0.00  0.00    -0.089 HD
ENDBRANCH  69  70
ENDBRANCH  68  69
ENDBRANCH  67  68
ENDBRANCH  66  67
ENDBRANCH  63  66
ENDBRANCH  59  63
ENDBRANCH  58  61
BRANCH  58  74
ATOM     74  CB  MET A   2      13.710   8.412  17.241  0.00  0.00    +0.041 C 
BRANCH  74  75
ATOM     75  CG  MET A   2      14.289   7.013  17.458  0.00  0.00    +0.060 C 
BRANCH  75  76
ATOM     76  SD  MET A   2      14.955   6.411  15.888  0.00  0.00    -0.139 S 
ATOM     77  CE  MET A   2      16.382   7.501  15.797  0.00  0.00    +0.069 C 
ENDBRANCH  75  76
ENDBRANCH  74  75
ENDBRANCH  58  74
ENDBRANCH  54  58
ENDBRANCH  53  55
BRANCH  53  78
ATOM     78  CB  ILE A   3      13.662  13.845  19.205  0.00  0.00    +0.027 C 
ATOM     79  CG2 ILE A   3      12.501  13.441  20.117  0.00  0.00    +0.002 C 
BRANCH  78  80
ATOM     80  CG1 ILE A   3      15.015  13.909  19.904  0.00  0.00    +0.002 C 
ATOM     81  CD1 ILE A   3      15.088  14.897  21.034  0.00  0.00    +0.000 C 
ENDBRANCH  78  80
ENDBRANCH  53  78
ENDBRANCH  49  53
ENDBRANCH  48  51
ENDBRANCH  44  48
ENDBRANCH  43  45
ENDBRANCH   1  43
TORSDOF 36
REMARK  Name = ../refined-set-2016/4dfg/4dfg_pocket.pdb
REMARK  225 active torsions:
REMARK  status: ('A' for Active; 'I' for Inactive)
REMARK    1  A    between atoms: _1  and  _3
REMARK    2  A    between atoms: _3  and  _4
REMARK    3  A    between atoms: _3  and  _6
REMARK    4  A    between atoms: _6  and  _7
REMARK    5  A    between atoms: _7  and  _8
REMARK    6  A    between atoms: _8  and  _9
REMARK    7  A    between atoms: _18  and  _20
REMARK    8  A    between atoms: _20  and  _21
REMARK    9  A    between atoms: _20  and  _23
REMARK   10  A    between atoms: _23  and  _24
REMARK   11  A    between atoms: _27  and  _29
REMARK   12  A    between atoms: _29  and  _30
REMARK   13  A    between atoms: _29  and  _32
REMARK   14  A    between atoms: _32  and  _33
REMARK   15  A    between atoms: _36  and  _38
REMARK   16  A    between atoms: _38  and  _39
REMARK   17  A    between atoms: _38  and  _41
REMARK   18  A    between atoms: _41  and  _42
REMARK   19  A    between atoms: _45  and  _47
REMARK   20  A    between atoms: _47  and  _48
REMARK   21  A    between atoms: _47  and  _50
REMARK   22  A    between atoms: _50  and  _51
REMARK   23  A    between atoms: _54  and  _56
REMARK   24  A    between atoms: _56  and  _57
REMARK   25  A    between atoms: _59  and  _61
REMARK   26  A    between atoms: _61  and  _62
REMARK   27  A    between atoms: _65  and  _67
REMARK   28  A    between atoms: _67  and  _68
REMARK   29  A    between atoms: _67  and  _70
REMARK   30  A    between atoms: _70  and  _71
REMARK   31  A    between atoms: _74  and  _76
REMARK   32  A    between atoms: _76  and  _77
REMARK   33  A    between atoms: _76  and  _79
REMARK   34  A    between atoms: _79  and  _80
REMARK   35  A    between atoms: _83  and  _85
REMARK   36  A    between atoms: _85  and  _86
REMARK   37  A    between atoms: _85  and  _88
REMARK   38  A    between atoms: _88  and  _89
REMARK   39  A    between atoms: _92  and  _94
REMARK   40  A    between atoms: _94  and  _95
REMARK   41  A    between atoms: _94  and  _97
REMARK   42  A    between atoms: _100  and  _102
REMARK   43  A    between atoms: _102  and  _103
REMARK   44  A    between atoms: _102  and  _105
REMARK   45  A    between atoms: _105  and  _106
REMARK   46  A    between atoms: _106  and  _107
REMARK   47  A    between atoms: _107  and  _108
REMARK   48  A    between atoms: _108  and  _109
REMARK   49  A    between atoms: _113  and  _115
REMARK   50  A    between atoms: _115  and  _116
REMARK   51  A    between atoms: _115  and  _118
REMARK   52  A    between atoms: _118  and  _119
REMARK   53  A    between atoms: _119  and  _120
REMARK   54  A    between atoms: _122  and  _124
REMARK   55  A    between atoms: _124  and  _125
REMARK   56  A    between atoms: _124  and  _127
REMARK   57  A    between atoms: _127  and  _128
REMARK   58  A    between atoms: _131  and  _133
REMARK   59  A    between atoms: _133  and  _134
REMARK   60  A    between atoms: _136  and  _138
REMARK   61  A    between atoms: _138  and  _139
REMARK   62  A    between atoms: _141  and  _143
REMARK   63  A    between atoms: _143  and  _144
REMARK   64  A    between atoms: _143  and  _146
REMARK   65  A    between atoms: _146  and  _147
REMARK   66  A    between atoms: _150  and  _152
REMARK   67  A    between atoms: _152  and  _153
REMARK   68  A    between atoms: _155  and  _157
REMARK   69  A    between atoms: _157  and  _158
REMARK   70  A    between atoms: _160  and  _162
REMARK   71  A    between atoms: _162  and  _163
REMARK   72  A    between atoms: _162  and  _165
REMARK   73  A    between atoms: _165  and  _166
REMARK   74  A    between atoms: _172  and  _174
REMARK   75  A    between atoms: _174  and  _175
REMARK   76  A    between atoms: _174  and  _177
REMARK   77  A    between atoms: _177  and  _178
REMARK   78  A    between atoms: _181  and  _183
REMARK   79  A    between atoms: _183  and  _184
REMARK   80  A    between atoms: _183  and  _186
REMARK   81  A    between atoms: _189  and  _191
REMARK   82  A    between atoms: _191  and  _192
REMARK   83  A    between atoms: _191  and  _194
REMARK   84  A    between atoms: _194  and  _195
REMARK   85  A    between atoms: _199  and  _200
REMARK   86  A    between atoms: _205  and  _207
REMARK   87  A    between atoms: _207  and  _208
REMARK   88  A    between atoms: _207  and  _210
REMARK   89  A    between atoms: _210  and  _211
REMARK   90  A    between atoms: _215  and  _216
REMARK   91  A    between atoms: _221  and  _223
REMARK   92  A    between atoms: _223  and  _224
REMARK   93  A    between atoms: _223  and  _226
REMARK   94  A    between atoms: _229  and  _231
REMARK   95  A    between atoms: _231  and  _232
REMARK   96  A    between atoms: _231  and  _234
REMARK   97  A    between atoms: _234  and  _235
REMARK   98  A    between atoms: _240  and  _242
REMARK   99  A    between atoms: _242  and  _243
REMARK  100  A    between atoms: _242  and  _245
REMARK  101  A    between atoms: _245  and  _246
REMARK  102  A    between atoms: _249  and  _251
REMARK  103  A    between atoms: _251  and  _252
REMARK  104  A    between atoms: _251  and  _254
REMARK  105  A    between atoms: _254  and  _255
REMARK  106  A    between atoms: _258  and  _260
REMARK  107  A    between atoms: _260  and  _261
REMARK  108  A    between atoms: _263  and  _265
REMARK  109  A    between atoms: _265  and  _266
REMARK  110  A    between atoms: _265  and  _268
REMARK  111  A    between atoms: _269  and  _270
REMARK  112  A    between atoms: _270  and  _271
REMARK  113  A    between atoms: _280  and  _282
REMARK  114  A    between atoms: _282  and  _283
REMARK  115  A    between atoms: _282  and  _285
REMARK  116  A    between atoms: _285  and  _286
REMARK  117  A    between atoms: _291  and  _293
REMARK  118  A    between atoms: _293  and  _294
REMARK  119  A    between atoms: _293  and  _296
REMARK  120  A    between atoms: _296  and  _297
REMARK  121  A    between atoms: _297  and  _298
REMARK  122  A    between atoms: _298  and  _299
REMARK  123  A    between atoms: _308  and  _310
REMARK  124  A    between atoms: _310  and  _311
REMARK  125  A    between atoms: _310  and  _313
REMARK  126  A    between atoms: _313  and  _314
REMARK  127  A    between atoms: _317  and  _319
REMARK  128  A    between atoms: _319  and  _320
REMARK  129  A    between atoms: _319  and  _322
REMARK  130  A    between atoms: _322  and  _323
REMARK  131  A    between atoms: _326  and  _328
REMARK  132  A    between atoms: _328  and  _329
REMARK  133  A    between atoms: _328  and  _331
REMARK  134  A    between atoms: _331  and  _332
REMARK  135  A    between atoms: _335  and  _337
REMARK  136  A    between atoms: _337  and  _338
REMARK  137  A    between atoms: _337  and  _340
REMARK  138  A    between atoms: _340  and  _341
REMARK  139  A    between atoms: _344  and  _346
REMARK  140  A    between atoms: _346  and  _347
REMARK  141  A    between atoms: _349  and  _351
REMARK  142  A    between atoms: _351  and  _352
REMARK  143  A    between atoms: _355  and  _357
REMARK  144  A    between atoms: _357  and  _358
REMARK  145  A    between atoms: _357  and  _360
REMARK  146  A    between atoms: _360  and  _361
REMARK  147  A    between atoms: _364  and  _366
REMARK  148  A    between atoms: _366  and  _367
REMARK  149  A    between atoms: _366  and  _369
REMARK  150  A    between atoms: _369  and  _370
REMARK  151  A    between atoms: _373  and  _375
REMARK  152  A    between atoms: _375  and  _376
REMARK  153  A    between atoms: _375  and  _378
REMARK  154  A    between atoms: _378  and  _379
REMARK  155  A    between atoms: _382  and  _384
REMARK  156  A    between atoms: _384  and  _385
REMARK  157  A    between atoms: _384  and  _387
REMARK  158  A    between atoms: _390  and  _392
REMARK  159  A    between atoms: _392  and  _393
REMARK  160  A    between atoms: _392  and  _395
REMARK  161  A    between atoms: _395  and  _396
REMARK  162  A    between atoms: _396  and  _397
REMARK  163  A    between atoms: _397  and  _398
REMARK  164  A    between atoms: _398  and  _399
REMARK  165  A    between atoms: _403  and  _405
REMARK  166  A    between atoms: _405  and  _406
REMARK  167  A    between atoms: _405  and  _408
REMARK  168  A    between atoms: _408  and  _409
REMARK  169  A    between atoms: _409  and  _410
REMARK  170  A    between atoms: _412  and  _414
REMARK  171  A    between atoms: _414  and  _415
REMARK  172  A    between atoms: _414  and  _417
REMARK  173  A    between atoms: _417  and  _418
REMARK  174  A    between atoms: _421  and  _423
REMARK  175  A    between atoms: _423  and  _424
REMARK  176  A    between atoms: _426  and  _428
REMARK  177  A    between atoms: _428  and  _429
REMARK  178  A    between atoms: _431  and  _433
REMARK  179  A    between atoms: _433  and  _434
REMARK  180  A    between atoms: _433  and  _436
REMARK  181  A    between atoms: _436  and  _437
REMARK  182  A    between atoms: _440  and  _442
REMARK  183  A    between atoms: _442  and  _443
REMARK  184  A    between atoms: _445  and  _447
REMARK  185  A    between atoms: _447  and  _448
REMARK  186  A    between atoms: _450  and  _452
REMARK  187  A    between atoms: _452  and  _453
REMARK  188  A    between atoms: _452  and  _455
REMARK  189  A    between atoms: _455  and  _456
REMARK  190  A    between atoms: _462  and  _464
REMARK  191  A    between atoms: _464  and  _465
REMARK  192  A    between atoms: _464  and  _467
REMARK  193  A    between atoms: _467  and  _468
REMARK  194  A    between atoms: _471  and  _473
REMARK  195  A    between atoms: _473  and  _474
REMARK  196  A    between atoms: _473  and  _476
REMARK  197  A    between atoms: _476  and  _477
REMARK  198  A    between atoms: _480  and  _482
REMARK  199  A    between atoms: _482  and  _483
REMARK  200  A    between atoms: _482  and  _485
REMARK  201  A    between atoms: _485  and  _486
REMARK  202  A    between atoms: _490  and  _491
REMARK  203  A    between atoms: _496  and  _498
REMARK  204  A    between atoms: _498  and  _499
REMARK  205  A    between atoms: _498  and  _501
REMARK  206  A    between atoms: _504  and  _506
REMARK  207  A    between atoms: _506  and  _507
REMARK  208  A    between atoms: _506  and  _509
REMARK  209  A    between atoms: _509  and  _510
REMARK  210  A    between atoms: _515  and  _517
REMARK  211  A    between atoms: _517  and  _518
REMARK  212  A    between atoms: _517  and  _520
REMARK  213  A    between atoms: _520  and  _521
REMARK  214  A    between atoms: _524  and  _526
REMARK  215  A    between atoms: _526  and  _527
REMARK  216  A    between atoms: _529  and  _531
REMARK  217  A    between atoms: _531  and  _532
REMARK  218  A    between atoms: _531  and  _534
REMARK  219  A    between atoms: _534  and  _535
REMARK  220  A    between atoms: _535  and  _536
REMARK  221  A    between atoms: _536  and  _537
REMARK  222  A    between atoms: _546  and  _548
REMARK  223  A    between atoms: _548  and  _549
REMARK  224  A    between atoms: _548  and  _551
REMARK  225  A    between atoms: _551  and  _552
REMARK                            x       y       z     vdW  Elec       q    Type
REMARK                         _______ _______ _______ _____ _____    ______ ____
ROOT
ATOM      1  CA  LEU A   1      13.434  13.270  27.461  0.00  0.00    +0.133 C 
ENDROOT
BRANCH   1   2
ATOM      2  N   LEU A   1      12.603  14.106  28.277  0.00  0.00    -0.239 NA
ATOM      3  H   LEU A   1      12.514  15.104  27.998  0.00  0.00    +0.142 HD
ENDBRANCH   1   2
BRANCH   1   4
ATOM      4  C   LEU A   1      14.884  13.470  27.906  0.00  0.00    +0.224 C 
ATOM      5  O   LEU A   1      15.333  14.591  28.074  0.00  0.00    -0.287 OA
ENDBRANCH   1   4
BRANCH   1   6
ATOM      6  CB  LEU A   1      13.278  13.577  25.974  0.00  0.00    +0.025 C 
BRANCH   6   7
ATOM      7  CG  LEU A   1      11.851  13.630  25.422  0.00  0.00    +0.002 C 
ATOM      8  CD2 LEU A   1      11.061  12.344  25.675  0.00  0.00    +0.000 C 
ATOM      9  CD1 LEU A   1      11.889  13.980  23.952  0.00  0.00    +0.000 C 
ENDBRANCH   6   7
ENDBRANCH   1   6
TORSDOF 4
REMARK  Name = ../refined-set-2016/4dfg/4dfg_pocket.pdb
REMARK  225 active torsions:
REMARK  status: ('A' for Active; 'I' for Inactive)
REMARK    1  A    between atoms: _1  and  _3
REMARK    2  A    between atoms: _3  and  _4
REMARK    3  A    between atoms: _3  and  _6
REMARK    4  A    between atoms: _6  and  _7
REMARK    5  A    between atoms: _7  and  _8
REMARK    6  A    between atoms: _8  and  _9
REMARK    7  A    between atoms: _18  and  _20
REMARK    8  A    between atoms: _20  and  _21
REMARK    9  A    between atoms: _20  and  _23
REMARK   10  A    between atoms: _23  and  _24
REMARK   11  A    between atoms: _27  and  _29
REMARK   12  A    between atoms: _29  and  _30
REMARK   13  A    between atoms: _29  and  _32
REMARK   14  A    between atoms: _32  and  _33
REMARK   15  A    between atoms: _36  and  _38
REMARK   16  A    between atoms: _38  and  _39
REMARK   17  A    between atoms: _38  and  _41
REMARK   18  A    between atoms: _41  and  _42
REMARK   19  A    between atoms: _45  and  _47
REMARK   20  A    between atoms: _47  and  _48
REMARK   21  A    between atoms: _47  and  _50
REMARK   22  A    between atoms: _50  and  _51
REMARK   23  A    between atoms: _54  and  _56
REMARK   24  A    between atoms: _56  and  _57
REMARK   25  A    between atoms: _59  and  _61
REMARK   26  A    between atoms: _61  and  _62
REMARK   27  A    between atoms: _65  and  _67
REMARK   28  A    between atoms: _67  and  _68
REMARK   29  A    between atoms: _67  and  _70
REMARK   30  A    between atoms: _70  and  _71
REMARK   31  A    between atoms: _74  and  _76
REMARK   32  A    between atoms: _76  and  _77
REMARK   33  A    between atoms: _76  and  _79
REMARK   34  A    between atoms: _79  and  _80
REMARK   35  A    between atoms: _83  and  _85
REMARK   36  A    between atoms: _85  and  _86
REMARK   37  A    between atoms: _85  and  _88
REMARK   38  A    between atoms: _88  and  _89
REMARK   39  A    between atoms: _92  and  _94
REMARK   40  A    between atoms: _94  and  _95
REMARK   41  A    between atoms: _94  and  _97
REMARK   42  A    between atoms: _100  and  _102
REMARK   43  A    between atoms: _102  and  _103
REMARK   44  A    between atoms: _102  and  _105
REMARK   45  A    between atoms: _105  and  _106
REMARK   46  A    between atoms: _106  and  _107
REMARK   47  A    between atoms: _107  and  _108
REMARK   48  A    between atoms: _108  and  _109
REMARK   49  A    between atoms: _113  and  _115
REMARK   50  A    between atoms: _115  and  _116
REMARK   51  A    between atoms: _115  and  _118
REMARK   52  A    between atoms: _118  and  _119
REMARK   53  A    between atoms: _119  and  _120
REMARK   54  A    between atoms: _122  and  _124
REMARK   55  A    between atoms: _124  and  _125
REMARK   56  A    between atoms: _124  and  _127
REMARK   57  A    between atoms: _127  and  _128
REMARK   58  A    between atoms: _131  and  _133
REMARK   59  A    between atoms: _133  and  _134
REMARK   60  A    between atoms: _136  and  _138
REMARK   61  A    between atoms: _138  and  _139
REMARK   62  A    between atoms: _141  and  _143
REMARK   63  A    between atoms: _143  and  _144
REMARK   64  A    between atoms: _143  and  _146
REMARK   65  A    between atoms: _146  and  _147
REMARK   66  A    between atoms: _150  and  _152
REMARK   67  A    between atoms: _152  and  _153
REMARK   68  A    between atoms: _155  and  _157
REMARK   69  A    between atoms: _157  and  _158
REMARK   70  A    between atoms: _160  and  _162
REMARK   71  A    between atoms: _162  and  _163
REMARK   72  A    between atoms: _162  and  _165
REMARK   73  A    between atoms: _165  and  _166
REMARK   74  A    between atoms: _172  and  _174
REMARK   75  A    between atoms: _174  and  _175
REMARK   76  A    between atoms: _174  and  _177
REMARK   77  A    between atoms: _177  and  _178
REMARK   78  A    between atoms: _181  and  _183
REMARK   79  A    between atoms: _183  and  _184
REMARK   80  A    between atoms: _183  and  _186
REMARK   81  A    between atoms: _189  and  _191
REMARK   82  A    between atoms: _191  and  _192
REMARK   83  A    between atoms: _191  and  _194
REMARK   84  A    between atoms: _194  and  _195
REMARK   85  A    between atoms: _199  and  _200
REMARK   86  A    between atoms: _205  and  _207
REMARK   87  A    between atoms: _207  and  _208
REMARK   88  A    between atoms: _207  and  _210
REMARK   89  A    between atoms: _210  and  _211
REMARK   90  A    between atoms: _215  and  _216
REMARK   91  A    between atoms: _221  and  _223
REMARK   92  A    between atoms: _223  and  _224
REMARK   93  A    between atoms: _223  and  _226
REMARK   94  A    between atoms: _229  and  _231
REMARK   95  A    between atoms: _231  and  _232
REMARK   96  A    between atoms: _231  and  _234
REMARK   97  A    between atoms: _234  and  _235
REMARK   98  A    between atoms: _240  and  _242
REMARK   99  A    between atoms: _242  and  _243
REMARK  100  A    between atoms: _242  and  _245
REMARK  101  A    between atoms: _245  and  _246
REMARK  102  A    between atoms: _249  and  _251
REMARK  103  A    between atoms: _251  and  _252
REMARK  104  A    between atoms: _251  and  _254
REMARK  105  A    between atoms: _254  and  _255
REMARK  106  A    between atoms: _258  and  _260
REMARK  107  A    between atoms: _260  and  _261
REMARK  108  A    between atoms: _263  and  _265
REMARK  109  A    between atoms: _265  and  _266
REMARK  110  A    between atoms: _265  and  _268
REMARK  111  A    between atoms: _269  and  _270
REMARK  112  A    between atoms: _270  and  _271
REMARK  113  A    between atoms: _280  and  _282
REMARK  114  A    between atoms: _282  and  _283
REMARK  115  A    between atoms: _282  and  _285
REMARK  116  A    between atoms: _285  and  _286
REMARK  117  A    between atoms: _291  and  _293
REMARK  118  A    between atoms: _293  and  _294
REMARK  119  A    between atoms: _293  and  _296
REMARK  120  A    between atoms: _296  and  _297
REMARK  121  A    between atoms: _297  and  _298
REMARK  122  A    between atoms: _298  and  _299
REMARK  123  A    between atoms: _308  and  _310
REMARK  124  A    between atoms: _310  and  _311
REMARK  125  A    between atoms: _310  and  _313
REMARK  126  A    between atoms: _313  and  _314
REMARK  127  A    between atoms: _317  and  _319
REMARK  128  A    between atoms: _319  and  _320
REMARK  129  A    between atoms: _319  and  _322
REMARK  130  A    between atoms: _322  and  _323
REMARK  131  A    between atoms: _326  and  _328
REMARK  132  A    between atoms: _328  and  _329
REMARK  133  A    between atoms: _328  and  _331
REMARK  134  A    between atoms: _331  and  _332
REMARK  135  A    between atoms: _335  and  _337
REMARK  136  A    between atoms: _337  and  _338
REMARK  137  A    between atoms: _337  and  _340
REMARK  138  A    between atoms: _340  and  _341
REMARK  139  A    between atoms: _344  and  _346
REMARK  140  A    between atoms: _346  and  _347
REMARK  141  A    between atoms: _349  and  _351
REMARK  142  A    between atoms: _351  and  _352
REMARK  143  A    between atoms: _355  and  _357
REMARK  144  A    between atoms: _357  and  _358
REMARK  145  A    between atoms: _357  and  _360
REMARK  146  A    between atoms: _360  and  _361
REMARK  147  A    between atoms: _364  and  _366
REMARK  148  A    between atoms: _366  and  _367
REMARK  149  A    between atoms: _366  and  _369
REMARK  150  A    between atoms: _369  and  _370
REMARK  151  A    between atoms: _373  and  _375
REMARK  152  A    between atoms: _375  and  _376
REMARK  153  A    between atoms: _375  and  _378
REMARK  154  A    between atoms: _378  and  _379
REMARK  155  A    between atoms: _382  and  _384
REMARK  156  A    between atoms: _384  and  _385
REMARK  157  A    between atoms: _384  and  _387
REMARK  158  A    between atoms: _390  and  _392
REMARK  159  A    between atoms: _392  and  _393
REMARK  160  A    between atoms: _392  and  _395
REMARK  161  A    between atoms: _395  and  _396
REMARK  162  A    between atoms: _396  and  _397
REMARK  163  A    between atoms: _397  and  _398
REMARK  164  A    between atoms: _398  and  _399
REMARK  165  A    between atoms: _403  and  _405
REMARK  166  A    between atoms: _405  and  _406
REMARK  167  A    between atoms: _405  and  _408
REMARK  168  A    between atoms: _408  and  _409
REMARK  169  A    between atoms: _409  and  _410
REMARK  170  A    between atoms: _412  and  _414
REMARK  171  A    between atoms: _414  and  _415
REMARK  172  A    between atoms: _414  and  _417
REMARK  173  A    between atoms: _417  and  _418
REMARK  174  A    between atoms: _421  and  _423
REMARK  175  A    between atoms: _423  and  _424
REMARK  176  A    between atoms: _426  and  _428
REMARK  177  A    between atoms: _428  and  _429
REMARK  178  A    between atoms: _431  and  _433
REMARK  179  A    between atoms: _433  and  _434
REMARK  180  A    between atoms: _433  and  _436
REMARK  181  A    between atoms: _436  and  _437
REMARK  182  A    between atoms: _440  and  _442
REMARK  183  A    between atoms: _442  and  _443
REMARK  184  A    between atoms: _445  and  _447
REMARK  185  A    between atoms: _447  and  _448
REMARK  186  A    between atoms: _450  and  _452
REMARK  187  A    between atoms: _452  and  _453
REMARK  188  A    between atoms: _452  and  _455
REMARK  189  A    between atoms: _455  and  _456
REMARK  190  A    between atoms: _462  and  _464
REMARK  191  A    between atoms: _464  and  _465
REMARK  192  A    between atoms: _464  and  _467
REMARK  193  A    between atoms: _467  and  _468
REMARK  194  A    between atoms: _471  and  _473
REMARK  195  A    between atoms: _473  and  _474
REMARK  196  A    between atoms: _473  and  _476
REMARK  197  A    between atoms: _476  and  _477
REMARK  198  A    between atoms: _480  and  _482
REMARK  199  A    between atoms: _482  and  _483
REMARK  200  A    between atoms: _482  and  _485
REMARK  201  A    between atoms: _485  and  _486
REMARK  202  A    between atoms: _490  and  _491
REMARK  203  A    between atoms: _496  and  _498
REMARK  204  A    between atoms: _498  and  _499
REMARK  205  A    between atoms: _498  and  _501
REMARK  206  A    between atoms: _504  and  _506
REMARK  207  A    between atoms: _506  and  _507
REMARK  208  A    between atoms: _506  and  _509
REMARK  209  A    between atoms: _509  and  _510
REMARK  210  A    between atoms: _515  and  _517
REMARK  211  A    between atoms: _517  and  _518
REMARK  212  A    between atoms: _517  and  _520
REMARK  213  A    between atoms: _520  and  _521
REMARK  214  A    between atoms: _524  and  _526
REMARK  215  A    between atoms: _526  and  _527
REMARK  216  A    between atoms: _529  and  _531
REMARK  217  A    between atoms: _531  and  _532
REMARK  218  A    between atoms: _531  and  _534
REMARK  219  A    between atoms: _534  and  _535
REMARK  220  A    between atoms: _535  and  _536
REMARK  221  A    between atoms: _536  and  _537
REMARK  222  A    between atoms: _546  and  _548
REMARK  223  A    between atoms: _548  and  _549
REMARK  224  A    between atoms: _548  and  _551
REMARK  225  A    between atoms: _551  and  _552
REMARK                            x       y       z     vdW  Elec       q    Type
REMARK                         _______ _______ _______ _____ _____    ______ ____
ROOT
ATOM      1  CA  VAL A   3      21.916  22.103  25.792  0.00  0.00    +0.149 C 
ENDROOT
BRANCH   1   4
ATOM      2  C   PRO A   2      23.606  20.940  24.458  0.00  0.00    +0.241 C 
ATOM      3  O   PRO A   2      24.562  21.489  24.918  0.00  0.00    -0.273 OA
ATOM      4  N   VAL A   3      22.382  21.203  24.766  0.00  0.00    -0.297 N 
ATOM      5  H   VAL A   3      21.650  20.712  24.214  0.00  0.00    +0.150 HD
BRANCH   2   9
ATOM      6  C   THR A   1      22.519  18.018  23.917  0.00  0.00    +0.244 C 
ATOM      7  O   THR A   1      23.167  17.963  24.944  0.00  0.00    -0.273 OA
ATOM      8  N   PRO A   2      22.873  18.971  23.038  0.00  0.00    -0.272 N 
ATOM      9  CA  PRO A   2      23.921  19.896  23.406  0.00  0.00    +0.152 C 
ATOM     10  CB  PRO A   2      24.168  20.721  22.147  0.00  0.00    +0.031 C 
ATOM     11  CG  PRO A   2      23.417  20.059  21.073  0.00  0.00    +0.024 C 
ATOM     12  CD  PRO A   2      22.360  19.178  21.669  0.00  0.00    +0.094 C 
BRANCH   6  13
ATOM     13  CA  THR A   1      21.372  17.095  23.575  0.00  0.00    +0.172 C 
BRANCH  13  14
ATOM     14  CB  THR A   1      20.049  17.585  24.137  0.00  0.00    +0.135 C 
ATOM     15  CG2 THR A   1      20.008  17.631  25.653  0.00  0.00    +0.034 C 
BRANCH  14  16
ATOM     16  OG1 THR A   1      19.856  18.941  23.671  0.00  0.00    -0.383 OA
ATOM     17  HG1 THR A   1      20.601  19.508  23.992  0.00  0.00    +0.210 HD
ENDBRANCH  14  16
ENDBRANCH  13  14
BRANCH  13  18
ATOM     18  N   THR A   1      21.664  15.746  24.110  0.00  0.00    -0.236 NA
ATOM     19  H   THR A   1      21.318  15.465  25.050  0.00  0.00    +0.142 HD
ENDBRANCH  13  18
ENDBRANCH   6  13
ENDBRANCH   2   9
ENDBRANCH   1   4
BRANCH   1  20
ATOM     20  C   VAL A   3      20.570  21.557  26.267  0.00  0.00    +0.241 C 
ATOM     21  N   ASN A   4      20.302  21.841  27.540  0.00  0.00    -0.297 N 
ATOM     22  H   ASN A   4      21.004  22.333  28.130  0.00  0.00    +0.150 HD
ATOM     23  O   VAL A   3      19.833  20.887  25.561  0.00  0.00    -0.273 OA
BRANCH  21  24
ATOM     24  CA  ASN A   4      19.022  21.456  28.091  0.00  0.00    +0.158 C 
BRANCH  24  25
ATOM     25  C   ASN A   4      17.949  22.371  27.484  0.00  0.00    +0.241 C 
ATOM     26  O   ASN A   4      18.124  23.619  27.509  0.00  0.00    -0.273 OA
ATOM     27  N   ILE A   5      16.876  21.766  26.978  0.00  0.00    -0.298 N 
ATOM     28  H   ILE A   5      16.774  20.735  27.063  0.00  0.00    +0.150 HD
BRANCH  27  29
ATOM     29  CA  ILE A   5      15.839  22.551  26.302  0.00  0.00    +0.137 C 
BRANCH  29  30
ATOM     30  CB  ILE A   5      15.802  22.324  24.770  0.00  0.00    +0.026 C 
ATOM     31  CG2 ILE A   5      17.138  22.771  24.154  0.00  0.00    +0.002 C 
BRANCH  30  32
ATOM     32  CG1 ILE A   5      15.450  20.938  24.239  0.00  0.00    +0.002 C 
ATOM     33  CD1 ILE A   5      15.481  20.785  22.728  0.00  0.00    +0.000 C 
ENDBRANCH  30  32
ENDBRANCH  29  30
BRANCH  29  34
ATOM     34  C   ILE A   5      14.467  22.307  26.931  0.00  0.00    +0.227 C 
ATOM     35  O   ILE A   5      14.073  21.148  27.155  0.00  0.00    -0.286 OA
ENDBRANCH  29  34
ENDBRANCH  27  29
ENDBRANCH  24  25
BRANCH  24  36
ATOM     36  CB  ASN A   4      19.032  21.597  29.600  0.00  0.00    +0.114 C 
BRANCH  36  37
ATOM     37  CG  ASN A   4      20.033  20.746  30.309  0.00  0.00    +0.222 C 
ATOM     38  ND2 ASN A   4      20.628  21.257  31.340  0.00  0.00    -0.329 N 
ATOM     39 HD21 ASN A   4      21.323  20.694  31.871  0.00  0.00    +0.145 HD
ATOM     40 HD22 ASN A   4      20.411  22.230  31.636  0.00  0.00    +0.145 HD
ATOM     41  OD1 ASN A   4      20.216  19.607  29.874  0.00  0.00    -0.275 OA
ENDBRANCH  36  37
ENDBRANCH  24  36
ENDBRANCH  21  24
ENDBRANCH   1  20
BRANCH   1  42
ATOM     42  CB  VAL A   3      21.723  23.543  25.282  0.00  0.00    +0.027 C 
ATOM     43  CG2 VAL A   3      21.434  24.563  26.361  0.00  0.00    +0.002 C 
ATOM     44  CG1 VAL A   3      20.613  23.481  24.237  0.00  0.00    +0.002 C 
ENDBRANCH   1  42
TORSDOF 16
REMARK  Name = ../refined-set-2016/4dfg/4dfg_pocket.pdb
REMARK  225 active torsions:
REMARK  status: ('A' for Active; 'I' for Inactive)
REMARK    1  A    between atoms: _1  and  _3
REMARK    2  A    between atoms: _3  and  _4
REMARK    3  A    between atoms: _3  and  _6
REMARK    4  A    between atoms: _6  and  _7
REMARK    5  A    between atoms: _7  and  _8
REMARK    6  A    between atoms: _8  and  _9
REMARK    7  A    between atoms: _18  and  _20
REMARK    8  A    between atoms: _20  and  _21
REMARK    9  A    between atoms: _20  and  _23
REMARK   10  A    between atoms: _23  and  _24
REMARK   11  A    between atoms: _27  and  _29
REMARK   12  A    between atoms: _29  and  _30
REMARK   13  A    between atoms: _29  and  _32
REMARK   14  A    between atoms: _32  and  _33
REMARK   15  A    between atoms: _36  and  _38
REMARK   16  A    between atoms: _38  and  _39
REMARK   17  A    between atoms: _38  and  _41
REMARK   18  A    between atoms: _41  and  _42
REMARK   19  A    between atoms: _45  and  _47
REMARK   20  A    between atoms: _47  and  _48
REMARK   21  A    between atoms: _47  and  _50
REMARK   22  A    between atoms: _50  and  _51
REMARK   23  A    between atoms: _54  and  _56
REMARK   24  A    between atoms: _56  and  _57
REMARK   25  A    between atoms: _59  and  _61
REMARK   26  A    between atoms: _61  and  _62
REMARK   27  A    between atoms: _65  and  _67
REMARK   28  A    between atoms: _67  and  _68
REMARK   29  A    between atoms: _67  and  _70
REMARK   30  A    between atoms: _70  and  _71
REMARK   31  A    between atoms: _74  and  _76
REMARK   32  A    between atoms: _76  and  _77
REMARK   33  A    between atoms: _76  and  _79
REMARK   34  A    between atoms: _79  and  _80
REMARK   35  A    between atoms: _83  and  _85
REMARK   36  A    between atoms: _85  and  _86
REMARK   37  A    between atoms: _85  and  _88
REMARK   38  A    between atoms: _88  and  _89
REMARK   39  A    between atoms: _92  and  _94
REMARK   40  A    between atoms: _94  and  _95
REMARK   41  A    between atoms: _94  and  _97
REMARK   42  A    between atoms: _100  and  _102
REMARK   43  A    between atoms: _102  and  _103
REMARK   44  A    between atoms: _102  and  _105
REMARK   45  A    between atoms: _105  and  _106
REMARK   46  A    between atoms: _106  and  _107
REMARK   47  A    between atoms: _107  and  _108
REMARK   48  A    between atoms: _108  and  _109
REMARK   49  A    between atoms: _113  and  _115
REMARK   50  A    between atoms: _115  and  _116
REMARK   51  A    between atoms: _115  and  _118
REMARK   52  A    between atoms: _118  and  _119
REMARK   53  A    between atoms: _119  and  _120
REMARK   54  A    between atoms: _122  and  _124
REMARK   55  A    between atoms: _124  and  _125
REMARK   56  A    between atoms: _124  and  _127
REMARK   57  A    between atoms: _127  and  _128
REMARK   58  A    between atoms: _131  and  _133
REMARK   59  A    between atoms: _133  and  _134
REMARK   60  A    between atoms: _136  and  _138
REMARK   61  A    between atoms: _138  and  _139
REMARK   62  A    between atoms: _141  and  _143
REMARK   63  A    between atoms: _143  and  _144
REMARK   64  A    between atoms: _143  and  _146
REMARK   65  A    between atoms: _146  and  _147
REMARK   66  A    between atoms: _150  and  _152
REMARK   67  A    between atoms: _152  and  _153
REMARK   68  A    between atoms: _155  and  _157
REMARK   69  A    between atoms: _157  and  _158
REMARK   70  A    between atoms: _160  and  _162
REMARK   71  A    between atoms: _162  and  _163
REMARK   72  A    between atoms: _162  and  _165
REMARK   73  A    between atoms: _165  and  _166
REMARK   74  A    between atoms: _172  and  _174
REMARK   75  A    between atoms: _174  and  _175
REMARK   76  A    between atoms: _174  and  _177
REMARK   77  A    between atoms: _177  and  _178
REMARK   78  A    between atoms: _181  and  _183
REMARK   79  A    between atoms: _183  and  _184
REMARK   80  A    between atoms: _183  and  _186
REMARK   81  A    between atoms: _189  and  _191
REMARK   82  A    between atoms: _191  and  _192
REMARK   83  A    between atoms: _191  and  _194
REMARK   84  A    between atoms: _194  and  _195
REMARK   85  A    between atoms: _199  and  _200
REMARK   86  A    between atoms: _205  and  _207
REMARK   87  A    between atoms: _207  and  _208
REMARK   88  A    between atoms: _207  and  _210
REMARK   89  A    between atoms: _210  and  _211
REMARK   90  A    between atoms: _215  and  _216
REMARK   91  A    between atoms: _221  and  _223
REMARK   92  A    between atoms: _223  and  _224
REMARK   93  A    between atoms: _223  and  _226
REMARK   94  A    between atoms: _229  and  _231
REMARK   95  A    between atoms: _231  and  _232
REMARK   96  A    between atoms: _231  and  _234
REMARK   97  A    between atoms: _234  and  _235
REMARK   98  A    between atoms: _240  and  _242
REMARK   99  A    between atoms: _242  and  _243
REMARK  100  A    between atoms: _242  and  _245
REMARK  101  A    between atoms: _245  and  _246
REMARK  102  A    between atoms: _249  and  _251
REMARK  103  A    between atoms: _251  and  _252
REMARK  104  A    between atoms: _251  and  _254
REMARK  105  A    between atoms: _254  and  _255
REMARK  106  A    between atoms: _258  and  _260
REMARK  107  A    between atoms: _260  and  _261
REMARK  108  A    between atoms: _263  and  _265
REMARK  109  A    between atoms: _265  and  _266
REMARK  110  A    between atoms: _265  and  _268
REMARK  111  A    between atoms: _269  and  _270
REMARK  112  A    between atoms: _270  and  _271
REMARK  113  A    between atoms: _280  and  _282
REMARK  114  A    between atoms: _282  and  _283
REMARK  115  A    between atoms: _282  and  _285
REMARK  116  A    between atoms: _285  and  _286
REMARK  117  A    between atoms: _291  and  _293
REMARK  118  A    between atoms: _293  and  _294
REMARK  119  A    between atoms: _293  and  _296
REMARK  120  A    between atoms: _296  and  _297
REMARK  121  A    between atoms: _297  and  _298
REMARK  122  A    between atoms: _298  and  _299
REMARK  123  A    between atoms: _308  and  _310
REMARK  124  A    between atoms: _310  and  _311
REMARK  125  A    between atoms: _310  and  _313
REMARK  126  A    between atoms: _313  and  _314
REMARK  127  A    between atoms: _317  and  _319
REMARK  128  A    between atoms: _319  and  _320
REMARK  129  A    between atoms: _319  and  _322
REMARK  130  A    between atoms: _322  and  _323
REMARK  131  A    between atoms: _326  and  _328
REMARK  132  A    between atoms: _328  and  _329
REMARK  133  A    between atoms: _328  and  _331
REMARK  134  A    between atoms: _331  and  _332
REMARK  135  A    between atoms: _335  and  _337
REMARK  136  A    between atoms: _337  and  _338
REMARK  137  A    between atoms: _337  and  _340
REMARK  138  A    between atoms: _340  and  _341
REMARK  139  A    between atoms: _344  and  _346
REMARK  140  A    between atoms: _346  and  _347
REMARK  141  A    between atoms: _349  and  _351
REMARK  142  A    between atoms: _351  and  _352
REMARK  143  A    between atoms: _355  and  _357
REMARK  144  A    between atoms: _357  and  _358
REMARK  145  A    between atoms: _357  and  _360
REMARK  146  A    between atoms: _360  and  _361
REMARK  147  A    between atoms: _364  and  _366
REMARK  148  A    between atoms: _366  and  _367
REMARK  149  A    between atoms: _366  and  _369
REMARK  150  A    between atoms: _369  and  _370
REMARK  151  A    between atoms: _373  and  _375
REMARK  152  A    between atoms: _375  and  _376
REMARK  153  A    between atoms: _375  and  _378
REMARK  154  A    between atoms: _378  and  _379
REMARK  155  A    between atoms: _382  and  _384
REMARK  156  A    between atoms: _384  and  _385
REMARK  157  A    between atoms: _384  and  _387
REMARK  158  A    between atoms: _390  and  _392
REMARK  159  A    between atoms: _392  and  _393
REMARK  160  A    between atoms: _392  and  _395
REMARK  161  A    between atoms: _395  and  _396
REMARK  162  A    between atoms: _396  and  _397
REMARK  163  A    between atoms: _397  and  _398
REMARK  164  A    between atoms: _398  and  _399
REMARK  165  A    between atoms: _403  and  _405
REMARK  166  A    between atoms: _405  and  _406
REMARK  167  A    between atoms: _405  and  _408
REMARK  168  A    between atoms: _408  and  _409
REMARK  169  A    between atoms: _409  and  _410
REMARK  170  A    between atoms: _412  and  _414
REMARK  171  A    between atoms: _414  and  _415
REMARK  172  A    between atoms: _414  and  _417
REMARK  173  A    between atoms: _417  and  _418
REMARK  174  A    between atoms: _421  and  _423
REMARK  175  A    between atoms: _423  and  _424
REMARK  176  A    between atoms: _426  and  _428
REMARK  177  A    between atoms: _428  and  _429
REMARK  178  A    between atoms: _431  and  _433
REMARK  179  A    between atoms: _433  and  _434
REMARK  180  A    between atoms: _433  and  _436
REMARK  181  A    between atoms: _436  and  _437
REMARK  182  A    between atoms: _440  and  _442
REMARK  183  A    between atoms: _442  and  _443
REMARK  184  A    between atoms: _445  and  _447
REMARK  185  A    between atoms: _447  and  _448
REMARK  186  A    between atoms: _450  and  _452
REMARK  187  A    between atoms: _452  and  _453
REMARK  188  A    between atoms: _452  and  _455
REMARK  189  A    between atoms: _455  and  _456
REMARK  190  A    between atoms: _462  and  _464
REMARK  191  A    between atoms: _464  and  _465
REMARK  192  A    between atoms: _464  and  _467
REMARK  193  A    between atoms: _467  and  _468
REMARK  194  A    between atoms: _471  and  _473
REMARK  195  A    between atoms: _473  and  _474
REMARK  196  A    between atoms: _473  and  _476
REMARK  197  A    between atoms: _476  and  _477
REMARK  198  A    between atoms: _480  and  _482
REMARK  199  A    between atoms: _482  and  _483
REMARK  200  A    between atoms: _482  and  _485
REMARK  201  A    between atoms: _485  and  _486
REMARK  202  A    between atoms: _490  and  _491
REMARK  203  A    between atoms: _496  and  _498
REMARK  204  A    between atoms: _498  and  _499
REMARK  205  A    between atoms: _498  and  _501
REMARK  206  A    between atoms: _504  and  _506
REMARK  207  A    between atoms: _506  and  _507
REMARK  208  A    between atoms: _506  and  _509
REMARK  209  A    between atoms: _509  and  _510
REMARK  210  A    between atoms: _515  and  _517
REMARK  211  A    between atoms: _517  and  _518
REMARK  212  A    between atoms: _517  and  _520
REMARK  213  A    between atoms: _520  and  _521
REMARK  214  A    between atoms: _524  and  _526
REMARK  215  A    between atoms: _526  and  _527
REMARK  216  A    between atoms: _529  and  _531
REMARK  217  A    between atoms: _531  and  _532
REMARK  218  A    between atoms: _531  and  _534
REMARK  219  A    between atoms: _534  and  _535
REMARK  220  A    between atoms: _535  and  _536
REMARK  221  A    between atoms: _536  and  _537
REMARK  222  A    between atoms: _546  and  _548
REMARK  223  A    between atoms: _548  and  _549
REMARK  224  A    between atoms: _548  and  _551
REMARK  225  A    between atoms: _551  and  _552
REMARK                            x       y       z     vdW  Elec       q    Type
REMARK                         _______ _______ _______ _____ _____    ______ ____
ROOT
ATOM      1  CA  ARG A   2       6.307  23.320  24.397  0.00  0.00    +0.149 C 
ENDROOT
BRANCH   1   4
ATOM      2  C   GLY A   1       8.523  22.880  25.276  0.00  0.00    +0.240 C 
ATOM      3  O   GLY A   1       8.136  23.095  26.436  0.00  0.00    -0.274 OA
ATOM      4  N   ARG A   2       7.657  22.836  24.232  0.00  0.00    -0.297 N 
ATOM      5  H   ARG A   2       7.965  22.454  23.315  0.00  0.00    +0.150 HD
BRANCH   2   6
ATOM      6  CA  GLY A   1       9.958  22.581  24.944  0.00  0.00    +0.169 C 
BRANCH   6   7
ATOM      7  N   GLY A   1      10.828  22.512  26.093  0.00  0.00    -0.236 NA
ATOM      8  H   GLY A   1      10.899  21.619  26.621  0.00  0.00    +0.142 HD
ENDBRANCH   6   7
ENDBRANCH   2   6
ENDBRANCH   1   4
BRANCH   1   9
ATOM      9  C   ARG A   2       5.504  22.513  25.380  0.00  0.00    +0.241 C 
ATOM     10  O   ARG A   2       4.585  23.061  25.995  0.00  0.00    -0.273 OA
ATOM     11  N   ASN A   3       5.813  21.214  25.527  0.00  0.00    -0.298 N 
ATOM     12  H   ASN A   3       6.583  20.775  24.983  0.00  0.00    +0.150 HD
BRANCH  11  13
ATOM     13  CA  ASN A   3       5.025  20.449  26.479  0.00  0.00    +0.146 C 
BRANCH  13  14
ATOM     14  C   ASN A   3       5.071  21.056  27.880  0.00  0.00    +0.227 C 
ATOM     15  O   ASN A   3       4.084  20.931  28.606  0.00  0.00    -0.286 OA
ENDBRANCH  13  14
BRANCH  13  16
ATOM     16  CB  ASN A   3       5.506  18.991  26.498  0.00  0.00    +0.112 C 
BRANCH  16  17
ATOM     17  CG  ASN A   3       6.819  18.782  27.175  0.00  0.00    +0.222 C 
ATOM     18  ND2 ASN A   3       6.834  17.864  28.157  0.00  0.00    -0.329 N 
ATOM     19 HD21 ASN A   3       7.718  17.661  28.665  0.00  0.00    +0.145 HD
ATOM     20 HD22 ASN A   3       5.961  17.357  28.408  0.00  0.00    +0.145 HD
ATOM     21  OD1 ASN A   3       7.809  19.424  26.819  0.00  0.00    -0.275 OA
ENDBRANCH  16  17
ENDBRANCH  13  16
ENDBRANCH  11  13
ENDBRANCH   1   9
BRANCH   1  22
ATOM     22  CB  ARG A   2       5.606  23.386  23.040  0.00  0.00    +0.033 C 
BRANCH  22  23
ATOM     23  CG  ARG A   2       6.195  24.441  22.105  0.00  0.00    +0.045 C 
BRANCH  23  24
ATOM     24  CD  ARG A   2       5.428  24.588  20.780  0.00  0.00    +0.174 C 
BRANCH  24  25
ATOM     25  NE  ARG A   2       5.399  23.362  20.017  0.00  0.00    -0.265 N 
ATOM     26  CZ  ARG A   2       4.443  22.447  20.016  0.00  0.00    +0.342 C 
ATOM     27  NH2 ARG A   2       3.313  22.586  20.706  0.00  0.00    -0.292 N 
ATOM     28 HH21 ARG A   2       3.154  23.441  21.276  0.00  0.00    +0.255 HD
ATOM     29 HH22 ARG A   2       2.589  21.840  20.675  0.00  0.00    +0.255 HD
ATOM     30  NH1 ARG A   2       4.638  21.341  19.285  0.00  0.00    -0.292 N 
ATOM     31 HH11 ARG A   2       3.909  20.599  19.259  0.00  0.00    +0.255 HD
ATOM     32 HH12 ARG A   2       5.518  21.224  18.743  0.00  0.00    +0.255 HD
ATOM     33  HE  ARG A   2       6.218  23.179  19.402  0.00  0.00    +0.259 HD
ENDBRANCH  24  25
ENDBRANCH  23  24
ENDBRANCH  22  23
ENDBRANCH   1  22
TORSDOF 12
REMARK  Name = ../refined-set-2016/4dfg/4dfg_pocket.pdb
REMARK  225 active torsions:
REMARK  status: ('A' for Active; 'I' for Inactive)
REMARK    1  A    between atoms: _1  and  _3
REMARK    2  A    between atoms: _3  and  _4
REMARK    3  A    between atoms: _3  and  _6
REMARK    4  A    between atoms: _6  and  _7
REMARK    5  A    between atoms: _7  and  _8
REMARK    6  A    between atoms: _8  and  _9
REMARK    7  A    between atoms: _18  and  _20
REMARK    8  A    between atoms: _20  and  _21
REMARK    9  A    between atoms: _20  and  _23
REMARK   10  A    between atoms: _23  and  _24
REMARK   11  A    between atoms: _27  and  _29
REMARK   12  A    between atoms: _29  and  _30
REMARK   13  A    between atoms: _29  and  _32
REMARK   14  A    between atoms: _32  and  _33
REMARK   15  A    between atoms: _36  and  _38
REMARK   16  A    between atoms: _38  and  _39
REMARK   17  A    between atoms: _38  and  _41
REMARK   18  A    between atoms: _41  and  _42
REMARK   19  A    between atoms: _45  and  _47
REMARK   20  A    between atoms: _47  and  _48
REMARK   21  A    between atoms: _47  and  _50
REMARK   22  A    between atoms: _50  and  _51
REMARK   23  A    between atoms: _54  and  _56
REMARK   24  A    between atoms: _56  and  _57
REMARK   25  A    between atoms: _59  and  _61
REMARK   26  A    between atoms: _61  and  _62
REMARK   27  A    between atoms: _65  and  _67
REMARK   28  A    between atoms: _67  and  _68
REMARK   29  A    between atoms: _67  and  _70
REMARK   30  A    between atoms: _70  and  _71
REMARK   31  A    between atoms: _74  and  _76
REMARK   32  A    between atoms: _76  and  _77
REMARK   33  A    between atoms: _76  and  _79
REMARK   34  A    between atoms: _79  and  _80
REMARK   35  A    between atoms: _83  and  _85
REMARK   36  A    between atoms: _85  and  _86
REMARK   37  A    between atoms: _85  and  _88
REMARK   38  A    between atoms: _88  and  _89
REMARK   39  A    between atoms: _92  and  _94
REMARK   40  A    between atoms: _94  and  _95
REMARK   41  A    between atoms: _94  and  _97
REMARK   42  A    between atoms: _100  and  _102
REMARK   43  A    between atoms: _102  and  _103
REMARK   44  A    between atoms: _102  and  _105
REMARK   45  A    between atoms: _105  and  _106
REMARK   46  A    between atoms: _106  and  _107
REMARK   47  A    between atoms: _107  and  _108
REMARK   48  A    between atoms: _108  and  _109
REMARK   49  A    between atoms: _113  and  _115
REMARK   50  A    between atoms: _115  and  _116
REMARK   51  A    between atoms: _115  and  _118
REMARK   52  A    between atoms: _118  and  _119
REMARK   53  A    between atoms: _119  and  _120
REMARK   54  A    between atoms: _122  and  _124
REMARK   55  A    between atoms: _124  and  _125
REMARK   56  A    between atoms: _124  and  _127
REMARK   57  A    between atoms: _127  and  _128
REMARK   58  A    between atoms: _131  and  _133
REMARK   59  A    between atoms: _133  and  _134
REMARK   60  A    between atoms: _136  and  _138
REMARK   61  A    between atoms: _138  and  _139
REMARK   62  A    between atoms: _141  and  _143
REMARK   63  A    between atoms: _143  and  _144
REMARK   64  A    between atoms: _143  and  _146
REMARK   65  A    between atoms: _146  and  _147
REMARK   66  A    between atoms: _150  and  _152
REMARK   67  A    between atoms: _152  and  _153
REMARK   68  A    between atoms: _155  and  _157
REMARK   69  A    between atoms: _157  and  _158
REMARK   70  A    between atoms: _160  and  _162
REMARK   71  A    between atoms: _162  and  _163
REMARK   72  A    between atoms: _162  and  _165
REMARK   73  A    between atoms: _165  and  _166
REMARK   74  A    between atoms: _172  and  _174
REMARK   75  A    between atoms: _174  and  _175
REMARK   76  A    between atoms: _174  and  _177
REMARK   77  A    between atoms: _177  and  _178
REMARK   78  A    between atoms: _181  and  _183
REMARK   79  A    between atoms: _183  and  _184
REMARK   80  A    between atoms: _183  and  _186
REMARK   81  A    between atoms: _189  and  _191
REMARK   82  A    between atoms: _191  and  _192
REMARK   83  A    between atoms: _191  and  _194
REMARK   84  A    between atoms: _194  and  _195
REMARK   85  A    between atoms: _199  and  _200
REMARK   86  A    between atoms: _205  and  _207
REMARK   87  A    between atoms: _207  and  _208
REMARK   88  A    between atoms: _207  and  _210
REMARK   89  A    between atoms: _210  and  _211
REMARK   90  A    between atoms: _215  and  _216
REMARK   91  A    between atoms: _221  and  _223
REMARK   92  A    between atoms: _223  and  _224
REMARK   93  A    between atoms: _223  and  _226
REMARK   94  A    between atoms: _229  and  _231
REMARK   95  A    between atoms: _231  and  _232
REMARK   96  A    between atoms: _231  and  _234
REMARK   97  A    between atoms: _234  and  _235
REMARK   98  A    between atoms: _240  and  _242
REMARK   99  A    between atoms: _242  and  _243
REMARK  100  A    between atoms: _242  and  _245
REMARK  101  A    between atoms: _245  and  _246
REMARK  102  A    between atoms: _249  and  _251
REMARK  103  A    between atoms: _251  and  _252
REMARK  104  A    between atoms: _251  and  _254
REMARK  105  A    between atoms: _254  and  _255
REMARK  106  A    between atoms: _258  and  _260
REMARK  107  A    between atoms: _260  and  _261
REMARK  108  A    between atoms: _263  and  _265
REMARK  109  A    between atoms: _265  and  _266
REMARK  110  A    between atoms: _265  and  _268
REMARK  111  A    between atoms: _269  and  _270
REMARK  112  A    between atoms: _270  and  _271
REMARK  113  A    between atoms: _280  and  _282
REMARK  114  A    between atoms: _282  and  _283
REMARK  115  A    between atoms: _282  and  _285
REMARK  116  A    between atoms: _285  and  _286
REMARK  117  A    between atoms: _291  and  _293
REMARK  118  A    between atoms: _293  and  _294
REMARK  119  A    between atoms: _293  and  _296
REMARK  120  A    between atoms: _296  and  _297
REMARK  121  A    between atoms: _297  and  _298
REMARK  122  A    between atoms: _298  and  _299
REMARK  123  A    between atoms: _308  and  _310
REMARK  124  A    between atoms: _310  and  _311
REMARK  125  A    between atoms: _310  and  _313
REMARK  126  A    between atoms: _313  and  _314
REMARK  127  A    between atoms: _317  and  _319
REMARK  128  A    between atoms: _319  and  _320
REMARK  129  A    between atoms: _319  and  _322
REMARK  130  A    between atoms: _322  and  _323
REMARK  131  A    between atoms: _326  and  _328
REMARK  132  A    between atoms: _328  and  _329
REMARK  133  A    between atoms: _328  and  _331
REMARK  134  A    between atoms: _331  and  _332
REMARK  135  A    between atoms: _335  and  _337
REMARK  136  A    between atoms: _337  and  _338
REMARK  137  A    between atoms: _337  and  _340
REMARK  138  A    between atoms: _340  and  _341
REMARK  139  A    between atoms: _344  and  _346
REMARK  140  A    between atoms: _346  and  _347
REMARK  141  A    between atoms: _349  and  _351
REMARK  142  A    between atoms: _351  and  _352
REMARK  143  A    between atoms: _355  and  _357
REMARK  144  A    between atoms: _357  and  _358
REMARK  145  A    between atoms: _357  and  _360
REMARK  146  A    between atoms: _360  and  _361
REMARK  147  A    between atoms: _364  and  _366
REMARK  148  A    between atoms: _366  and  _367
REMARK  149  A    between atoms: _366  and  _369
REMARK  150  A    between atoms: _369  and  _370
REMARK  151  A    between atoms: _373  and  _375
REMARK  152  A    between atoms: _375  and  _376
REMARK  153  A    between atoms: _375  and  _378
REMARK  154  A    between atoms: _378  and  _379
REMARK  155  A    between atoms: _382  and  _384
REMARK  156  A    between atoms: _384  and  _385
REMARK  157  A    between atoms: _384  and  _387
REMARK  158  A    between atoms: _390  and  _392
REMARK  159  A    between atoms: _392  and  _393
REMARK  160  A    between atoms: _392  and  _395
REMARK  161  A    between atoms: _395  and  _396
REMARK  162  A    between atoms: _396  and  _397
REMARK  163  A    between atoms: _397  and  _398
REMARK  164  A    between atoms: _398  and  _399
REMARK  165  A    between atoms: _403  and  _405
REMARK  166  A    between atoms: _405  and  _406
REMARK  167  A    between atoms: _405  and  _408
REMARK  168  A    between atoms: _408  and  _409
REMARK  169  A    between atoms: _409  and  _410
REMARK  170  A    between atoms: _412  and  _414
REMARK  171  A    between atoms: _414  and  _415
REMARK  172  A    between atoms: _414  and  _417
REMARK  173  A    between atoms: _417  and  _418
REMARK  174  A    between atoms: _421  and  _423
REMARK  175  A    between atoms: _423  and  _424
REMARK  176  A    between atoms: _426  and  _428
REMARK  177  A    between atoms: _428  and  _429
REMARK  178  A    between atoms: _431  and  _433
REMARK  179  A    between atoms: _433  and  _434
REMARK  180  A    between atoms: _433  and  _436
REMARK  181  A    between atoms: _436  and  _437
REMARK  182  A    between atoms: _440  and  _442
REMARK  183  A    between atoms: _442  and  _443
REMARK  184  A    between atoms: _445  and  _447
REMARK  185  A    between atoms: _447  and  _448
REMARK  186  A    between atoms: _450  and  _452
REMARK  187  A    between atoms: _452  and  _453
REMARK  188  A    between atoms: _452  and  _455
REMARK  189  A    between atoms: _455  and  _456
REMARK  190  A    between atoms: _462  and  _464
REMARK  191  A    between atoms: _464  and  _465
REMARK  192  A    between atoms: _464  and  _467
REMARK  193  A    between atoms: _467  and  _468
REMARK  194  A    between atoms: _471  and  _473
REMARK  195  A    between atoms: _473  and  _474
REMARK  196  A    between atoms: _473  and  _476
REMARK  197  A    between atoms: _476  and  _477
REMARK  198  A    between atoms: _480  and  _482
REMARK  199  A    between atoms: _482  and  _483
REMARK  200  A    between atoms: _482  and  _485
REMARK  201  A    between atoms: _485  and  _486
REMARK  202  A    between atoms: _490  and  _491
REMARK  203  A    between atoms: _496  and  _498
REMARK  204  A    between atoms: _498  and  _499
REMARK  205  A    between atoms: _498  and  _501
REMARK  206  A    between atoms: _504  and  _506
REMARK  207  A    between atoms: _506  and  _507
REMARK  208  A    between atoms: _506  and  _509
REMARK  209  A    between atoms: _509  and  _510
REMARK  210  A    between atoms: _515  and  _517
REMARK  211  A    between atoms: _517  and  _518
REMARK  212  A    between atoms: _517  and  _520
REMARK  213  A    between atoms: _520  and  _521
REMARK  214  A    between atoms: _524  and  _526
REMARK  215  A    between atoms: _526  and  _527
REMARK  216  A    between atoms: _529  and  _531
REMARK  217  A    between atoms: _531  and  _532
REMARK  218  A    between atoms: _531  and  _534
REMARK  219  A    between atoms: _534  and  _535
REMARK  220  A    between atoms: _535  and  _536
REMARK  221  A    between atoms: _536  and  _537
REMARK  222  A    between atoms: _546  and  _548
REMARK  223  A    between atoms: _548  and  _549
REMARK  224  A    between atoms: _548  and  _551
REMARK  225  A    between atoms: _551  and  _552
REMARK                            x       y       z     vdW  Elec       q    Type
REMARK                         _______ _______ _______ _____ _____    ______ ____
ROOT
ATOM      1  O   HOH     1      18.359  30.766  21.693  0.00  0.00    +0.000 OA
ENDROOT
TORSDOF 0
REMARK  Name = ../refined-set-2016/4dfg/4dfg_pocket.pdb
REMARK  225 active torsions:
REMARK  status: ('A' for Active; 'I' for Inactive)
REMARK    1  A    between atoms: _1  and  _3
REMARK    2  A    between atoms: _3  and  _4
REMARK    3  A    between atoms: _3  and  _6
REMARK    4  A    between atoms: _6  and  _7
REMARK    5  A    between atoms: _7  and  _8
REMARK    6  A    between atoms: _8  and  _9
REMARK    7  A    between atoms: _18  and  _20
REMARK    8  A    between atoms: _20  and  _21
REMARK    9  A    between atoms: _20  and  _23
REMARK   10  A    between atoms: _23  and  _24
REMARK   11  A    between atoms: _27  and  _29
REMARK   12  A    between atoms: _29  and  _30
REMARK   13  A    between atoms: _29  and  _32
REMARK   14  A    between atoms: _32  and  _33
REMARK   15  A    between atoms: _36  and  _38
REMARK   16  A    between atoms: _38  and  _39
REMARK   17  A    between atoms: _38  and  _41
REMARK   18  A    between atoms: _41  and  _42
REMARK   19  A    between atoms: _45  and  _47
REMARK   20  A    between atoms: _47  and  _48
REMARK   21  A    between atoms: _47  and  _50
REMARK   22  A    between atoms: _50  and  _51
REMARK   23  A    between atoms: _54  and  _56
REMARK   24  A    between atoms: _56  and  _57
REMARK   25  A    between atoms: _59  and  _61
REMARK   26  A    between atoms: _61  and  _62
REMARK   27  A    between atoms: _65  and  _67
REMARK   28  A    between atoms: _67  and  _68
REMARK   29  A    between atoms: _67  and  _70
REMARK   30  A    between atoms: _70  and  _71
REMARK   31  A    between atoms: _74  and  _76
REMARK   32  A    between atoms: _76  and  _77
REMARK   33  A    between atoms: _76  and  _79
REMARK   34  A    between atoms: _79  and  _80
REMARK   35  A    between atoms: _83  and  _85
REMARK   36  A    between atoms: _85  and  _86
REMARK   37  A    between atoms: _85  and  _88
REMARK   38  A    between atoms: _88  and  _89
REMARK   39  A    between atoms: _92  and  _94
REMARK   40  A    between atoms: _94  and  _95
REMARK   41  A    between atoms: _94  and  _97
REMARK   42  A    between atoms: _100  and  _102
REMARK   43  A    between atoms: _102  and  _103
REMARK   44  A    between atoms: _102  and  _105
REMARK   45  A    between atoms: _105  and  _106
REMARK   46  A    between atoms: _106  and  _107
REMARK   47  A    between atoms: _107  and  _108
REMARK   48  A    between atoms: _108  and  _109
REMARK   49  A    between atoms: _113  and  _115
REMARK   50  A    between atoms: _115  and  _116
REMARK   51  A    between atoms: _115  and  _118
REMARK   52  A    between atoms: _118  and  _119
REMARK   53  A    between atoms: _119  and  _120
REMARK   54  A    between atoms: _122  and  _124
REMARK   55  A    between atoms: _124  and  _125
REMARK   56  A    between atoms: _124  and  _127
REMARK   57  A    between atoms: _127  and  _128
REMARK   58  A    between atoms: _131  and  _133
REMARK   59  A    between atoms: _133  and  _134
REMARK   60  A    between atoms: _136  and  _138
REMARK   61  A    between atoms: _138  and  _139
REMARK   62  A    between atoms: _141  and  _143
REMARK   63  A    between atoms: _143  and  _144
REMARK   64  A    between atoms: _143  and  _146
REMARK   65  A    between atoms: _146  and  _147
REMARK   66  A    between atoms: _150  and  _152
REMARK   67  A    between atoms: _152  and  _153
REMARK   68  A    between atoms: _155  and  _157
REMARK   69  A    between atoms: _157  and  _158
REMARK   70  A    between atoms: _160  and  _162
REMARK   71  A    between atoms: _162  and  _163
REMARK   72  A    between atoms: _162  and  _165
REMARK   73  A    between atoms: _165  and  _166
REMARK   74  A    between atoms: _172  and  _174
REMARK   75  A    between atoms: _174  and  _175
REMARK   76  A    between atoms: _174  and  _177
REMARK   77  A    between atoms: _177  and  _178
REMARK   78  A    between atoms: _181  and  _183
REMARK   79  A    between atoms: _183  and  _184
REMARK   80  A    between atoms: _183  and  _186
REMARK   81  A    between atoms: _189  and  _191
REMARK   82  A    between atoms: _191  and  _192
REMARK   83  A    between atoms: _191  and  _194
REMARK   84  A    between atoms: _194  and  _195
REMARK   85  A    between atoms: _199  and  _200
REMARK   86  A    between atoms: _205  and  _207
REMARK   87  A    between atoms: _207  and  _208
REMARK   88  A    between atoms: _207  and  _210
REMARK   89  A    between atoms: _210  and  _211
REMARK   90  A    between atoms: _215  and  _216
REMARK   91  A    between atoms: _221  and  _223
REMARK   92  A    between atoms: _223  and  _224
REMARK   93  A    between atoms: _223  and  _226
REMARK   94  A    between atoms: _229  and  _231
REMARK   95  A    between atoms: _231  and  _232
REMARK   96  A    between atoms: _231  and  _234
REMARK   97  A    between atoms: _234  and  _235
REMARK   98  A    between atoms: _240  and  _242
REMARK   99  A    between atoms: _242  and  _243
REMARK  100  A    between atoms: _242  and  _245
REMARK  101  A    between atoms: _245  and  _246
REMARK  102  A    between atoms: _249  and  _251
REMARK  103  A    between atoms: _251  and  _252
REMARK  104  A    between atoms: _251  and  _254
REMARK  105  A    between atoms: _254  and  _255
REMARK  106  A    between atoms: _258  and  _260
REMARK  107  A    between atoms: _260  and  _261
REMARK  108  A    between atoms: _263  and  _265
REMARK  109  A    between atoms: _265  and  _266
REMARK  110  A    between atoms: _265  and  _268
REMARK  111  A    between atoms: _269  and  _270
REMARK  112  A    between atoms: _270  and  _271
REMARK  113  A    between atoms: _280  and  _282
REMARK  114  A    between atoms: _282  and  _283
REMARK  115  A    between atoms: _282  and  _285
REMARK  116  A    between atoms: _285  and  _286
REMARK  117  A    between atoms: _291  and  _293
REMARK  118  A    between atoms: _293  and  _294
REMARK  119  A    between atoms: _293  and  _296
REMARK  120  A    between atoms: _296  and  _297
REMARK  121  A    between atoms: _297  and  _298
REMARK  122  A    between atoms: _298  and  _299
REMARK  123  A    between atoms: _308  and  _310
REMARK  124  A    between atoms: _310  and  _311
REMARK  125  A    between atoms: _310  and  _313
REMARK  126  A    between atoms: _313  and  _314
REMARK  127  A    between atoms: _317  and  _319
REMARK  128  A    between atoms: _319  and  _320
REMARK  129  A    between atoms: _319  and  _322
REMARK  130  A    between atoms: _322  and  _323
REMARK  131  A    between atoms: _326  and  _328
REMARK  132  A    between atoms: _328  and  _329
REMARK  133  A    between atoms: _328  and  _331
REMARK  134  A    between atoms: _331  and  _332
REMARK  135  A    between atoms: _335  and  _337
REMARK  136  A    between atoms: _337  and  _338
REMARK  137  A    between atoms: _337  and  _340
REMARK  138  A    between atoms: _340  and  _341
REMARK  139  A    between atoms: _344  and  _346
REMARK  140  A    between atoms: _346  and  _347
REMARK  141  A    between atoms: _349  and  _351
REMARK  142  A    between atoms: _351  and  _352
REMARK  143  A    between atoms: _355  and  _357
REMARK  144  A    between atoms: _357  and  _358
REMARK  145  A    between atoms: _357  and  _360
REMARK  146  A    between atoms: _360  and  _361
REMARK  147  A    between atoms: _364  and  _366
REMARK  148  A    between atoms: _366  and  _367
REMARK  149  A    between atoms: _366  and  _369
REMARK  150  A    between atoms: _369  and  _370
REMARK  151  A    between atoms: _373  and  _375
REMARK  152  A    between atoms: _375  and  _376
REMARK  153  A    between atoms: _375  and  _378
REMARK  154  A    between atoms: _378  and  _379
REMARK  155  A    between atoms: _382  and  _384
REMARK  156  A    between atoms: _384  and  _385
REMARK  157  A    between atoms: _384  and  _387
REMARK  158  A    between atoms: _390  and  _392
REMARK  159  A    between atoms: _392  and  _393
REMARK  160  A    between atoms: _392  and  _395
REMARK  161  A    between atoms: _395  and  _396
REMARK  162  A    between atoms: _396  and  _397
REMARK  163  A    between atoms: _397  and  _398
REMARK  164  A    between atoms: _398  and  _399
REMARK  165  A    between atoms: _403  and  _405
REMARK  166  A    between atoms: _405  and  _406
REMARK  167  A    between atoms: _405  and  _408
REMARK  168  A    between atoms: _408  and  _409
REMARK  169  A    between atoms: _409  and  _410
REMARK  170  A    between atoms: _412  and  _414
REMARK  171  A    between atoms: _414  and  _415
REMARK  172  A    between atoms: _414  and  _417
REMARK  173  A    between atoms: _417  and  _418
REMARK  174  A    between atoms: _421  and  _423
REMARK  175  A    between atoms: _423  and  _424
REMARK  176  A    between atoms: _426  and  _428
REMARK  177  A    between atoms: _428  and  _429
REMARK  178  A    between atoms: _431  and  _433
REMARK  179  A    between atoms: _433  and  _434
REMARK  180  A    between atoms: _433  and  _436
REMARK  181  A    between atoms: _436  and  _437
REMARK  182  A    between atoms: _440  and  _442
REMARK  183  A    between atoms: _442  and  _443
REMARK  184  A    between atoms: _445  and  _447
REMARK  185  A    between atoms: _447  and  _448
REMARK  186  A    between atoms: _450  and  _452
REMARK  187  A    between atoms: _452  and  _453
REMARK  188  A    between atoms: _452  and  _455
REMARK  189  A    between atoms: _455  and  _456
REMARK  190  A    between atoms: _462  and  _464
REMARK  191  A    between atoms: _464  and  _465
REMARK  192  A    between atoms: _464  and  _467
REMARK  193  A    between atoms: _467  and  _468
REMARK  194  A    between atoms: _471  and  _473
REMARK  195  A    between atoms: _473  and  _474
REMARK  196  A    between atoms: _473  and  _476
REMARK  197  A    between atoms: _476  and  _477
REMARK  198  A    between atoms: _480  and  _482
REMARK  199  A    between atoms: _482  and  _483
REMARK  200  A    between atoms: _482  and  _485
REMARK  201  A    between atoms: _485  and  _486
REMARK  202  A    between atoms: _490  and  _491
REMARK  203  A    between atoms: _496  and  _498
REMARK  204  A    between atoms: _498  and  _499
REMARK  205  A    between atoms: _498  and  _501
REMARK  206  A    between atoms: _504  and  _506
REMARK  207  A    between atoms: _506  and  _507
REMARK  208  A    between atoms: _506  and  _509
REMARK  209  A    between atoms: _509  and  _510
REMARK  210  A    between atoms: _515  and  _517
REMARK  211  A    between atoms: _517  and  _518
REMARK  212  A    between atoms: _517  and  _520
REMARK  213  A    between atoms: _520  and  _521
REMARK  214  A    between atoms: _524  and  _526
REMARK  215  A    between atoms: _526  and  _527
REMARK  216  A    between atoms: _529  and  _531
REMARK  217  A    between atoms: _531  and  _532
REMARK  218  A    between atoms: _531  and  _534
REMARK  219  A    between atoms: _534  and  _535
REMARK  220  A    between atoms: _535  and  _536
REMARK  221  A    between atoms: _536  and  _537
REMARK  222  A    between atoms: _546  and  _548
REMARK  223  A    between atoms: _548  and  _549
REMARK  224  A    between atoms: _548  and  _551
REMARK  225  A    between atoms: _551  and  _552
REMARK                            x       y       z     vdW  Elec       q    Type
REMARK                         _______ _______ _______ _____ _____    ______ ____
ROOT
ATOM      1  O   HOH     1      20.801  33.592  10.744  0.00  0.00    +0.000 OA
ENDROOT
TORSDOF 0
REMARK  Name = ../refined-set-2016/4dfg/4dfg_pocket.pdb
REMARK  225 active torsions:
REMARK  status: ('A' for Active; 'I' for Inactive)
REMARK    1  A    between atoms: _1  and  _3
REMARK    2  A    between atoms: _3  and  _4
REMARK    3  A    between atoms: _3  and  _6
REMARK    4  A    between atoms: _6  and  _7
REMARK    5  A    between atoms: _7  and  _8
REMARK    6  A    between atoms: _8  and  _9
REMARK    7  A    between atoms: _18  and  _20
REMARK    8  A    between atoms: _20  and  _21
REMARK    9  A    between atoms: _20  and  _23
REMARK   10  A    between atoms: _23  and  _24
REMARK   11  A    between atoms: _27  and  _29
REMARK   12  A    between atoms: _29  and  _30
REMARK   13  A    between atoms: _29  and  _32
REMARK   14  A    between atoms: _32  and  _33
REMARK   15  A    between atoms: _36  and  _38
REMARK   16  A    between atoms: _38  and  _39
REMARK   17  A    between atoms: _38  and  _41
REMARK   18  A    between atoms: _41  and  _42
REMARK   19  A    between atoms: _45  and  _47
REMARK   20  A    between atoms: _47  and  _48
REMARK   21  A    between atoms: _47  and  _50
REMARK   22  A    between atoms: _50  and  _51
REMARK   23  A    between atoms: _54  and  _56
REMARK   24  A    between atoms: _56  and  _57
REMARK   25  A    between atoms: _59  and  _61
REMARK   26  A    between atoms: _61  and  _62
REMARK   27  A    between atoms: _65  and  _67
REMARK   28  A    between atoms: _67  and  _68
REMARK   29  A    between atoms: _67  and  _70
REMARK   30  A    between atoms: _70  and  _71
REMARK   31  A    between atoms: _74  and  _76
REMARK   32  A    between atoms: _76  and  _77
REMARK   33  A    between atoms: _76  and  _79
REMARK   34  A    between atoms: _79  and  _80
REMARK   35  A    between atoms: _83  and  _85
REMARK   36  A    between atoms: _85  and  _86
REMARK   37  A    between atoms: _85  and  _88
REMARK   38  A    between atoms: _88  and  _89
REMARK   39  A    between atoms: _92  and  _94
REMARK   40  A    between atoms: _94  and  _95
REMARK   41  A    between atoms: _94  and  _97
REMARK   42  A    between atoms: _100  and  _102
REMARK   43  A    between atoms: _102  and  _103
REMARK   44  A    between atoms: _102  and  _105
REMARK   45  A    between atoms: _105  and  _106
REMARK   46  A    between atoms: _106  and  _107
REMARK   47  A    between atoms: _107  and  _108
REMARK   48  A    between atoms: _108  and  _109
REMARK   49  A    between atoms: _113  and  _115
REMARK   50  A    between atoms: _115  and  _116
REMARK   51  A    between atoms: _115  and  _118
REMARK   52  A    between atoms: _118  and  _119
REMARK   53  A    between atoms: _119  and  _120
REMARK   54  A    between atoms: _122  and  _124
REMARK   55  A    between atoms: _124  and  _125
REMARK   56  A    between atoms: _124  and  _127
REMARK   57  A    between atoms: _127  and  _128
REMARK   58  A    between atoms: _131  and  _133
REMARK   59  A    between atoms: _133  and  _134
REMARK   60  A    between atoms: _136  and  _138
REMARK   61  A    between atoms: _138  and  _139
REMARK   62  A    between atoms: _141  and  _143
REMARK   63  A    between atoms: _143  and  _144
REMARK   64  A    between atoms: _143  and  _146
REMARK   65  A    between atoms: _146  and  _147
REMARK   66  A    between atoms: _150  and  _152
REMARK   67  A    between atoms: _152  and  _153
REMARK   68  A    between atoms: _155  and  _157
REMARK   69  A    between atoms: _157  and  _158
REMARK   70  A    between atoms: _160  and  _162
REMARK   71  A    between atoms: _162  and  _163
REMARK   72  A    between atoms: _162  and  _165
REMARK   73  A    between atoms: _165  and  _166
REMARK   74  A    between atoms: _172  and  _174
REMARK   75  A    between atoms: _174  and  _175
REMARK   76  A    between atoms: _174  and  _177
REMARK   77  A    between atoms: _177  and  _178
REMARK   78  A    between atoms: _181  and  _183
REMARK   79  A    between atoms: _183  and  _184
REMARK   80  A    between atoms: _183  and  _186
REMARK   81  A    between atoms: _189  and  _191
REMARK   82  A    between atoms: _191  and  _192
REMARK   83  A    between atoms: _191  and  _194
REMARK   84  A    between atoms: _194  and  _195
REMARK   85  A    between atoms: _199  and  _200
REMARK   86  A    between atoms: _205  and  _207
REMARK   87  A    between atoms: _207  and  _208
REMARK   88  A    between atoms: _207  and  _210
REMARK   89  A    between atoms: _210  and  _211
REMARK   90  A    between atoms: _215  and  _216
REMARK   91  A    between atoms: _221  and  _223
REMARK   92  A    between atoms: _223  and  _224
REMARK   93  A    between atoms: _223  and  _226
REMARK   94  A    between atoms: _229  and  _231
REMARK   95  A    between atoms: _231  and  _232
REMARK   96  A    between atoms: _231  and  _234
REMARK   97  A    between atoms: _234  and  _235
REMARK   98  A    between atoms: _240  and  _242
REMARK   99  A    between atoms: _242  and  _243
REMARK  100  A    between atoms: _242  and  _245
REMARK  101  A    between atoms: _245  and  _246
REMARK  102  A    between atoms: _249  and  _251
REMARK  103  A    between atoms: _251  and  _252
REMARK  104  A    between atoms: _251  and  _254
REMARK  105  A    between atoms: _254  and  _255
REMARK  106  A    between atoms: _258  and  _260
REMARK  107  A    between atoms: _260  and  _261
REMARK  108  A    between atoms: _263  and  _265
REMARK  109  A    between atoms: _265  and  _266
REMARK  110  A    between atoms: _265  and  _268
REMARK  111  A    between atoms: _269  and  _270
REMARK  112  A    between atoms: _270  and  _271
REMARK  113  A    between atoms: _280  and  _282
REMARK  114  A    between atoms: _282  and  _283
REMARK  115  A    between atoms: _282  and  _285
REMARK  116  A    between atoms: _285  and  _286
REMARK  117  A    between atoms: _291  and  _293
REMARK  118  A    between atoms: _293  and  _294
REMARK  119  A    between atoms: _293  and  _296
REMARK  120  A    between atoms: _296  and  _297
REMARK  121  A    between atoms: _297  and  _298
REMARK  122  A    between atoms: _298  and  _299
REMARK  123  A    between atoms: _308  and  _310
REMARK  124  A    between atoms: _310  and  _311
REMARK  125  A    between atoms: _310  and  _313
REMARK  126  A    between atoms: _313  and  _314
REMARK  127  A    between atoms: _317  and  _319
REMARK  128  A    between atoms: _319  and  _320
REMARK  129  A    between atoms: _319  and  _322
REMARK  130  A    between atoms: _322  and  _323
REMARK  131  A    between atoms: _326  and  _328
REMARK  132  A    between atoms: _328  and  _329
REMARK  133  A    between atoms: _328  and  _331
REMARK  134  A    between atoms: _331  and  _332
REMARK  135  A    between atoms: _335  and  _337
REMARK  136  A    between atoms: _337  and  _338
REMARK  137  A    between atoms: _337  and  _340
REMARK  138  A    between atoms: _340  and  _341
REMARK  139  A    between atoms: _344  and  _346
REMARK  140  A    between atoms: _346  and  _347
REMARK  141  A    between atoms: _349  and  _351
REMARK  142  A    between atoms: _351  and  _352
REMARK  143  A    between atoms: _355  and  _357
REMARK  144  A    between atoms: _357  and  _358
REMARK  145  A    between atoms: _357  and  _360
REMARK  146  A    between atoms: _360  and  _361
REMARK  147  A    between atoms: _364  and  _366
REMARK  148  A    between atoms: _366  and  _367
REMARK  149  A    between atoms: _366  and  _369
REMARK  150  A    between atoms: _369  and  _370
REMARK  151  A    between atoms: _373  and  _375
REMARK  152  A    between atoms: _375  and  _376
REMARK  153  A    between atoms: _375  and  _378
REMARK  154  A    between atoms: _378  and  _379
REMARK  155  A    between atoms: _382  and  _384
REMARK  156  A    between atoms: _384  and  _385
REMARK  157  A    between atoms: _384  and  _387
REMARK  158  A    between atoms: _390  and  _392
REMARK  159  A    between atoms: _392  and  _393
REMARK  160  A    between atoms: _392  and  _395
REMARK  161  A    between atoms: _395  and  _396
REMARK  162  A    between atoms: _396  and  _397
REMARK  163  A    between atoms: _397  and  _398
REMARK  164  A    between atoms: _398  and  _399
REMARK  165  A    between atoms: _403  and  _405
REMARK  166  A    between atoms: _405  and  _406
REMARK  167  A    between atoms: _405  and  _408
REMARK  168  A    between atoms: _408  and  _409
REMARK  169  A    between atoms: _409  and  _410
REMARK  170  A    between atoms: _412  and  _414
REMARK  171  A    between atoms: _414  and  _415
REMARK  172  A    between atoms: _414  and  _417
REMARK  173  A    between atoms: _417  and  _418
REMARK  174  A    between atoms: _421  and  _423
REMARK  175  A    between atoms: _423  and  _424
REMARK  176  A    between atoms: _426  and  _428
REMARK  177  A    between atoms: _428  and  _429
REMARK  178  A    between atoms: _431  and  _433
REMARK  179  A    between atoms: _433  and  _434
REMARK  180  A    between atoms: _433  and  _436
REMARK  181  A    between atoms: _436  and  _437
REMARK  182  A    between atoms: _440  and  _442
REMARK  183  A    between atoms: _442  and  _443
REMARK  184  A    between atoms: _445  and  _447
REMARK  185  A    between atoms: _447  and  _448
REMARK  186  A    between atoms: _450  and  _452
REMARK  187  A    between atoms: _452  and  _453
REMARK  188  A    between atoms: _452  and  _455
REMARK  189  A    between atoms: _455  and  _456
REMARK  190  A    between atoms: _462  and  _464
REMARK  191  A    between atoms: _464  and  _465
REMARK  192  A    between atoms: _464  and  _467
REMARK  193  A    between atoms: _467  and  _468
REMARK  194  A    between atoms: _471  and  _473
REMARK  195  A    between atoms: _473  and  _474
REMARK  196  A    between atoms: _473  and  _476
REMARK  197  A    between atoms: _476  and  _477
REMARK  198  A    between atoms: _480  and  _482
REMARK  199  A    between atoms: _482  and  _483
REMARK  200  A    between atoms: _482  and  _485
REMARK  201  A    between atoms: _485  and  _486
REMARK  202  A    between atoms: _490  and  _491
REMARK  203  A    between atoms: _496  and  _498
REMARK  204  A    between atoms: _498  and  _499
REMARK  205  A    between atoms: _498  and  _501
REMARK  206  A    between atoms: _504  and  _506
REMARK  207  A    between atoms: _506  and  _507
REMARK  208  A    between atoms: _506  and  _509
REMARK  209  A    between atoms: _509  and  _510
REMARK  210  A    between atoms: _515  and  _517
REMARK  211  A    between atoms: _517  and  _518
REMARK  212  A    between atoms: _517  and  _520
REMARK  213  A    between atoms: _520  and  _521
REMARK  214  A    between atoms: _524  and  _526
REMARK  215  A    between atoms: _526  and  _527
REMARK  216  A    between atoms: _529  and  _531
REMARK  217  A    between atoms: _531  and  _532
REMARK  218  A    between atoms: _531  and  _534
REMARK  219  A    between atoms: _534  and  _535
REMARK  220  A    between atoms: _535  and  _536
REMARK  221  A    between atoms: _536  and  _537
REMARK  222  A    between atoms: _546  and  _548
REMARK  223  A    between atoms: _548  and  _549
REMARK  224  A    between atoms: _548  and  _551
REMARK  225  A    between atoms: _551  and  _552
REMARK                            x       y       z     vdW  Elec       q    Type
REMARK                         _______ _______ _______ _____ _____    ______ ____
ROOT
ATOM      1  O   HOH     1      20.145  28.745  21.279  0.00  0.00    +0.000 OA
ENDROOT
TORSDOF 0
REMARK  Name = ../refined-set-2016/4dfg/4dfg_pocket.pdb
REMARK  225 active torsions:
REMARK  status: ('A' for Active; 'I' for Inactive)
REMARK    1  A    between atoms: _1  and  _3
REMARK    2  A    between atoms: _3  and  _4
REMARK    3  A    between atoms: _3  and  _6
REMARK    4  A    between atoms: _6  and  _7
REMARK    5  A    between atoms: _7  and  _8
REMARK    6  A    between atoms: _8  and  _9
REMARK    7  A    between atoms: _18  and  _20
REMARK    8  A    between atoms: _20  and  _21
REMARK    9  A    between atoms: _20  and  _23
REMARK   10  A    between atoms: _23  and  _24
REMARK   11  A    between atoms: _27  and  _29
REMARK   12  A    between atoms: _29  and  _30
REMARK   13  A    between atoms: _29  and  _32
REMARK   14  A    between atoms: _32  and  _33
REMARK   15  A    between atoms: _36  and  _38
REMARK   16  A    between atoms: _38  and  _39
REMARK   17  A    between atoms: _38  and  _41
REMARK   18  A    between atoms: _41  and  _42
REMARK   19  A    between atoms: _45  and  _47
REMARK   20  A    between atoms: _47  and  _48
REMARK   21  A    between atoms: _47  and  _50
REMARK   22  A    between atoms: _50  and  _51
REMARK   23  A    between atoms: _54  and  _56
REMARK   24  A    between atoms: _56  and  _57
REMARK   25  A    between atoms: _59  and  _61
REMARK   26  A    between atoms: _61  and  _62
REMARK   27  A    between atoms: _65  and  _67
REMARK   28  A    between atoms: _67  and  _68
REMARK   29  A    between atoms: _67  and  _70
REMARK   30  A    between atoms: _70  and  _71
REMARK   31  A    between atoms: _74  and  _76
REMARK   32  A    between atoms: _76  and  _77
REMARK   33  A    between atoms: _76  and  _79
REMARK   34  A    between atoms: _79  and  _80
REMARK   35  A    between atoms: _83  and  _85
REMARK   36  A    between atoms: _85  and  _86
REMARK   37  A    between atoms: _85  and  _88
REMARK   38  A    between atoms: _88  and  _89
REMARK   39  A    between atoms: _92  and  _94
REMARK   40  A    between atoms: _94  and  _95
REMARK   41  A    between atoms: _94  and  _97
REMARK   42  A    between atoms: _100  and  _102
REMARK   43  A    between atoms: _102  and  _103
REMARK   44  A    between atoms: _102  and  _105
REMARK   45  A    between atoms: _105  and  _106
REMARK   46  A    between atoms: _106  and  _107
REMARK   47  A    between atoms: _107  and  _108
REMARK   48  A    between atoms: _108  and  _109
REMARK   49  A    between atoms: _113  and  _115
REMARK   50  A    between atoms: _115  and  _116
REMARK   51  A    between atoms: _115  and  _118
REMARK   52  A    between atoms: _118  and  _119
REMARK   53  A    between atoms: _119  and  _120
REMARK   54  A    between atoms: _122  and  _124
REMARK   55  A    between atoms: _124  and  _125
REMARK   56  A    between atoms: _124  and  _127
REMARK   57  A    between atoms: _127  and  _128
REMARK   58  A    between atoms: _131  and  _133
REMARK   59  A    between atoms: _133  and  _134
REMARK   60  A    between atoms: _136  and  _138
REMARK   61  A    between atoms: _138  and  _139
REMARK   62  A    between atoms: _141  and  _143
REMARK   63  A    between atoms: _143  and  _144
REMARK   64  A    between atoms: _143  and  _146
REMARK   65  A    between atoms: _146  and  _147
REMARK   66  A    between atoms: _150  and  _152
REMARK   67  A    between atoms: _152  and  _153
REMARK   68  A    between atoms: _155  and  _157
REMARK   69  A    between atoms: _157  and  _158
REMARK   70  A    between atoms: _160  and  _162
REMARK   71  A    between atoms: _162  and  _163
REMARK   72  A    between atoms: _162  and  _165
REMARK   73  A    between atoms: _165  and  _166
REMARK   74  A    between atoms: _172  and  _174
REMARK   75  A    between atoms: _174  and  _175
REMARK   76  A    between atoms: _174  and  _177
REMARK   77  A    between atoms: _177  and  _178
REMARK   78  A    between atoms: _181  and  _183
REMARK   79  A    between atoms: _183  and  _184
REMARK   80  A    between atoms: _183  and  _186
REMARK   81  A    between atoms: _189  and  _191
REMARK   82  A    between atoms: _191  and  _192
REMARK   83  A    between atoms: _191  and  _194
REMARK   84  A    between atoms: _194  and  _195
REMARK   85  A    between atoms: _199  and  _200
REMARK   86  A    between atoms: _205  and  _207
REMARK   87  A    between atoms: _207  and  _208
REMARK   88  A    between atoms: _207  and  _210
REMARK   89  A    between atoms: _210  and  _211
REMARK   90  A    between atoms: _215  and  _216
REMARK   91  A    between atoms: _221  and  _223
REMARK   92  A    between atoms: _223  and  _224
REMARK   93  A    between atoms: _223  and  _226
REMARK   94  A    between atoms: _229  and  _231
REMARK   95  A    between atoms: _231  and  _232
REMARK   96  A    between atoms: _231  and  _234
REMARK   97  A    between atoms: _234  and  _235
REMARK   98  A    between atoms: _240  and  _242
REMARK   99  A    between atoms: _242  and  _243
REMARK  100  A    between atoms: _242  and  _245
REMARK  101  A    between atoms: _245  and  _246
REMARK  102  A    between atoms: _249  and  _251
REMARK  103  A    between atoms: _251  and  _252
REMARK  104  A    between atoms: _251  and  _254
REMARK  105  A    between atoms: _254  and  _255
REMARK  106  A    between atoms: _258  and  _260
REMARK  107  A    between atoms: _260  and  _261
REMARK  108  A    between atoms: _263  and  _265
REMARK  109  A    between atoms: _265  and  _266
REMARK  110  A    between atoms: _265  and  _268
REMARK  111  A    between atoms: _269  and  _270
REMARK  112  A    between atoms: _270  and  _271
REMARK  113  A    between atoms: _280  and  _282
REMARK  114  A    between atoms: _282  and  _283
REMARK  115  A    between atoms: _282  and  _285
REMARK  116  A    between atoms: _285  and  _286
REMARK  117  A    between atoms: _291  and  _293
REMARK  118  A    between atoms: _293  and  _294
REMARK  119  A    between atoms: _293  and  _296
REMARK  120  A    between atoms: _296  and  _297
REMARK  121  A    between atoms: _297  and  _298
REMARK  122  A    between atoms: _298  and  _299
REMARK  123  A    between atoms: _308  and  _310
REMARK  124  A    between atoms: _310  and  _311
REMARK  125  A    between atoms: _310  and  _313
REMARK  126  A    between atoms: _313  and  _314
REMARK  127  A    between atoms: _317  and  _319
REMARK  128  A    between atoms: _319  and  _320
REMARK  129  A    between atoms: _319  and  _322
REMARK  130  A    between atoms: _322  and  _323
REMARK  131  A    between atoms: _326  and  _328
REMARK  132  A    between atoms: _328  and  _329
REMARK  133  A    between atoms: _328  and  _331
REMARK  134  A    between atoms: _331  and  _332
REMARK  135  A    between atoms: _335  and  _337
REMARK  136  A    between atoms: _337  and  _338
REMARK  137  A    between atoms: _337  and  _340
REMARK  138  A    between atoms: _340  and  _341
REMARK  139  A    between atoms: _344  and  _346
REMARK  140  A    between atoms: _346  and  _347
REMARK  141  A    between atoms: _349  and  _351
REMARK  142  A    between atoms: _351  and  _352
REMARK  143  A    between atoms: _355  and  _357
REMARK  144  A    between atoms: _357  and  _358
REMARK  145  A    between atoms: _357  and  _360
REMARK  146  A    between atoms: _360  and  _361
REMARK  147  A    between atoms: _364  and  _366
REMARK  148  A    between atoms: _366  and  _367
REMARK  149  A    between atoms: _366  and  _369
REMARK  150  A    between atoms: _369  and  _370
REMARK  151  A    between atoms: _373  and  _375
REMARK  152  A    between atoms: _375  and  _376
REMARK  153  A    between atoms: _375  and  _378
REMARK  154  A    between atoms: _378  and  _379
REMARK  155  A    between atoms: _382  and  _384
REMARK  156  A    between atoms: _384  and  _385
REMARK  157  A    between atoms: _384  and  _387
REMARK  158  A    between atoms: _390  and  _392
REMARK  159  A    between atoms: _392  and  _393
REMARK  160  A    between atoms: _392  and  _395
REMARK  161  A    between atoms: _395  and  _396
REMARK  162  A    between atoms: _396  and  _397
REMARK  163  A    between atoms: _397  and  _398
REMARK  164  A    between atoms: _398  and  _399
REMARK  165  A    between atoms: _403  and  _405
REMARK  166  A    between atoms: _405  and  _406
REMARK  167  A    between atoms: _405  and  _408
REMARK  168  A    between atoms: _408  and  _409
REMARK  169  A    between atoms: _409  and  _410
REMARK  170  A    between atoms: _412  and  _414
REMARK  171  A    between atoms: _414  and  _415
REMARK  172  A    between atoms: _414  and  _417
REMARK  173  A    between atoms: _417  and  _418
REMARK  174  A    between atoms: _421  and  _423
REMARK  175  A    between atoms: _423  and  _424
REMARK  176  A    between atoms: _426  and  _428
REMARK  177  A    between atoms: _428  and  _429
REMARK  178  A    between atoms: _431  and  _433
REMARK  179  A    between atoms: _433  and  _434
REMARK  180  A    between atoms: _433  and  _436
REMARK  181  A    between atoms: _436  and  _437
REMARK  182  A    between atoms: _440  and  _442
REMARK  183  A    between atoms: _442  and  _443
REMARK  184  A    between atoms: _445  and  _447
REMARK  185  A    between atoms: _447  and  _448
REMARK  186  A    between atoms: _450  and  _452
REMARK  187  A    between atoms: _452  and  _453
REMARK  188  A    between atoms: _452  and  _455
REMARK  189  A    between atoms: _455  and  _456
REMARK  190  A    between atoms: _462  and  _464
REMARK  191  A    between atoms: _464  and  _465
REMARK  192  A    between atoms: _464  and  _467
REMARK  193  A    between atoms: _467  and  _468
REMARK  194  A    between atoms: _471  and  _473
REMARK  195  A    between atoms: _473  and  _474
REMARK  196  A    between atoms: _473  and  _476
REMARK  197  A    between atoms: _476  and  _477
REMARK  198  A    between atoms: _480  and  _482
REMARK  199  A    between atoms: _482  and  _483
REMARK  200  A    between atoms: _482  and  _485
REMARK  201  A    between atoms: _485  and  _486
REMARK  202  A    between atoms: _490  and  _491
REMARK  203  A    between atoms: _496  and  _498
REMARK  204  A    between atoms: _498  and  _499
REMARK  205  A    between atoms: _498  and  _501
REMARK  206  A    between atoms: _504  and  _506
REMARK  207  A    between atoms: _506  and  _507
REMARK  208  A    between atoms: _506  and  _509
REMARK  209  A    between atoms: _509  and  _510
REMARK  210  A    between atoms: _515  and  _517
REMARK  211  A    between atoms: _517  and  _518
REMARK  212  A    between atoms: _517  and  _520
REMARK  213  A    between atoms: _520  and  _521
REMARK  214  A    between atoms: _524  and  _526
REMARK  215  A    between atoms: _526  and  _527
REMARK  216  A    between atoms: _529  and  _531
REMARK  217  A    between atoms: _531  and  _532
REMARK  218  A    between atoms: _531  and  _534
REMARK  219  A    between atoms: _534  and  _535
REMARK  220  A    between atoms: _535  and  _536
REMARK  221  A    between atoms: _536  and  _537
REMARK  222  A    between atoms: _546  and  _548
REMARK  223  A    between atoms: _548  and  _549
REMARK  224  A    between atoms: _548  and  _551
REMARK  225  A    between atoms: _551  and  _552
REMARK                            x       y       z     vdW  Elec       q    Type
REMARK                         _______ _______ _______ _____ _____    ______ ____
ROOT
ATOM      1  O   HOH     1      25.991  26.085  15.910  0.00  0.00    +0.000 OA
ENDROOT
TORSDOF 0
REMARK  Name = ../refined-set-2016/4dfg/4dfg_pocket.pdb
REMARK  225 active torsions:
REMARK  status: ('A' for Active; 'I' for Inactive)
REMARK    1  A    between atoms: _1  and  _3
REMARK    2  A    between atoms: _3  and  _4
REMARK    3  A    between atoms: _3  and  _6
REMARK    4  A    between atoms: _6  and  _7
REMARK    5  A    between atoms: _7  and  _8
REMARK    6  A    between atoms: _8  and  _9
REMARK    7  A    between atoms: _18  and  _20
REMARK    8  A    between atoms: _20  and  _21
REMARK    9  A    between atoms: _20  and  _23
REMARK   10  A    between atoms: _23  and  _24
REMARK   11  A    between atoms: _27  and  _29
REMARK   12  A    between atoms: _29  and  _30
REMARK   13  A    between atoms: _29  and  _32
REMARK   14  A    between atoms: _32  and  _33
REMARK   15  A    between atoms: _36  and  _38
REMARK   16  A    between atoms: _38  and  _39
REMARK   17  A    between atoms: _38  and  _41
REMARK   18  A    between atoms: _41  and  _42
REMARK   19  A    between atoms: _45  and  _47
REMARK   20  A    between atoms: _47  and  _48
REMARK   21  A    between atoms: _47  and  _50
REMARK   22  A    between atoms: _50  and  _51
REMARK   23  A    between atoms: _54  and  _56
REMARK   24  A    between atoms: _56  and  _57
REMARK   25  A    between atoms: _59  and  _61
REMARK   26  A    between atoms: _61  and  _62
REMARK   27  A    between atoms: _65  and  _67
REMARK   28  A    between atoms: _67  and  _68
REMARK   29  A    between atoms: _67  and  _70
REMARK   30  A    between atoms: _70  and  _71
REMARK   31  A    between atoms: _74  and  _76
REMARK   32  A    between atoms: _76  and  _77
REMARK   33  A    between atoms: _76  and  _79
REMARK   34  A    between atoms: _79  and  _80
REMARK   35  A    between atoms: _83  and  _85
REMARK   36  A    between atoms: _85  and  _86
REMARK   37  A    between atoms: _85  and  _88
REMARK   38  A    between atoms: _88  and  _89
REMARK   39  A    between atoms: _92  and  _94
REMARK   40  A    between atoms: _94  and  _95
REMARK   41  A    between atoms: _94  and  _97
REMARK   42  A    between atoms: _100  and  _102
REMARK   43  A    between atoms: _102  and  _103
REMARK   44  A    between atoms: _102  and  _105
REMARK   45  A    between atoms: _105  and  _106
REMARK   46  A    between atoms: _106  and  _107
REMARK   47  A    between atoms: _107  and  _108
REMARK   48  A    between atoms: _108  and  _109
REMARK   49  A    between atoms: _113  and  _115
REMARK   50  A    between atoms: _115  and  _116
REMARK   51  A    between atoms: _115  and  _118
REMARK   52  A    between atoms: _118  and  _119
REMARK   53  A    between atoms: _119  and  _120
REMARK   54  A    between atoms: _122  and  _124
REMARK   55  A    between atoms: _124  and  _125
REMARK   56  A    between atoms: _124  and  _127
REMARK   57  A    between atoms: _127  and  _128
REMARK   58  A    between atoms: _131  and  _133
REMARK   59  A    between atoms: _133  and  _134
REMARK   60  A    between atoms: _136  and  _138
REMARK   61  A    between atoms: _138  and  _139
REMARK   62  A    between atoms: _141  and  _143
REMARK   63  A    between atoms: _143  and  _144
REMARK   64  A    between atoms: _143  and  _146
REMARK   65  A    between atoms: _146  and  _147
REMARK   66  A    between atoms: _150  and  _152
REMARK   67  A    between atoms: _152  and  _153
REMARK   68  A    between atoms: _155  and  _157
REMARK   69  A    between atoms: _157  and  _158
REMARK   70  A    between atoms: _160  and  _162
REMARK   71  A    between atoms: _162  and  _163
REMARK   72  A    between atoms: _162  and  _165
REMARK   73  A    between atoms: _165  and  _166
REMARK   74  A    between atoms: _172  and  _174
REMARK   75  A    between atoms: _174  and  _175
REMARK   76  A    between atoms: _174  and  _177
REMARK   77  A    between atoms: _177  and  _178
REMARK   78  A    between atoms: _181  and  _183
REMARK   79  A    between atoms: _183  and  _184
REMARK   80  A    between atoms: _183  and  _186
REMARK   81  A    between atoms: _189  and  _191
REMARK   82  A    between atoms: _191  and  _192
REMARK   83  A    between atoms: _191  and  _194
REMARK   84  A    between atoms: _194  and  _195
REMARK   85  A    between atoms: _199  and  _200
REMARK   86  A    between atoms: _205  and  _207
REMARK   87  A    between atoms: _207  and  _208
REMARK   88  A    between atoms: _207  and  _210
REMARK   89  A    between atoms: _210  and  _211
REMARK   90  A    between atoms: _215  and  _216
REMARK   91  A    between atoms: _221  and  _223
REMARK   92  A    between atoms: _223  and  _224
REMARK   93  A    between atoms: _223  and  _226
REMARK   94  A    between atoms: _229  and  _231
REMARK   95  A    between atoms: _231  and  _232
REMARK   96  A    between atoms: _231  and  _234
REMARK   97  A    between atoms: _234  and  _235
REMARK   98  A    between atoms: _240  and  _242
REMARK   99  A    between atoms: _242  and  _243
REMARK  100  A    between atoms: _242  and  _245
REMARK  101  A    between atoms: _245  and  _246
REMARK  102  A    between atoms: _249  and  _251
REMARK  103  A    between atoms: _251  and  _252
REMARK  104  A    between atoms: _251  and  _254
REMARK  105  A    between atoms: _254  and  _255
REMARK  106  A    between atoms: _258  and  _260
REMARK  107  A    between atoms: _260  and  _261
REMARK  108  A    between atoms: _263  and  _265
REMARK  109  A    between atoms: _265  and  _266
REMARK  110  A    between atoms: _265  and  _268
REMARK  111  A    between atoms: _269  and  _270
REMARK  112  A    between atoms: _270  and  _271
REMARK  113  A    between atoms: _280  and  _282
REMARK  114  A    between atoms: _282  and  _283
REMARK  115  A    between atoms: _282  and  _285
REMARK  116  A    between atoms: _285  and  _286
REMARK  117  A    between atoms: _291  and  _293
REMARK  118  A    between atoms: _293  and  _294
REMARK  119  A    between atoms: _293  and  _296
REMARK  120  A    between atoms: _296  and  _297
REMARK  121  A    between atoms: _297  and  _298
REMARK  122  A    between atoms: _298  and  _299
REMARK  123  A    between atoms: _308  and  _310
REMARK  124  A    between atoms: _310  and  _311
REMARK  125  A    between atoms: _310  and  _313
REMARK  126  A    between atoms: _313  and  _314
REMARK  127  A    between atoms: _317  and  _319
REMARK  128  A    between atoms: _319  and  _320
REMARK  129  A    between atoms: _319  and  _322
REMARK  130  A    between atoms: _322  and  _323
REMARK  131  A    between atoms: _326  and  _328
REMARK  132  A    between atoms: _328  and  _329
REMARK  133  A    between atoms: _328  and  _331
REMARK  134  A    between atoms: _331  and  _332
REMARK  135  A    between atoms: _335  and  _337
REMARK  136  A    between atoms: _337  and  _338
REMARK  137  A    between atoms: _337  and  _340
REMARK  138  A    between atoms: _340  and  _341
REMARK  139  A    between atoms: _344  and  _346
REMARK  140  A    between atoms: _346  and  _347
REMARK  141  A    between atoms: _349  and  _351
REMARK  142  A    between atoms: _351  and  _352
REMARK  143  A    between atoms: _355  and  _357
REMARK  144  A    between atoms: _357  and  _358
REMARK  145  A    between atoms: _357  and  _360
REMARK  146  A    between atoms: _360  and  _361
REMARK  147  A    between atoms: _364  and  _366
REMARK  148  A    between atoms: _366  and  _367
REMARK  149  A    between atoms: _366  and  _369
REMARK  150  A    between atoms: _369  and  _370
REMARK  151  A    between atoms: _373  and  _375
REMARK  152  A    between atoms: _375  and  _376
REMARK  153  A    between atoms: _375  and  _378
REMARK  154  A    between atoms: _378  and  _379
REMARK  155  A    between atoms: _382  and  _384
REMARK  156  A    between atoms: _384  and  _385
REMARK  157  A    between atoms: _384  and  _387
REMARK  158  A    between atoms: _390  and  _392
REMARK  159  A    between atoms: _392  and  _393
REMARK  160  A    between atoms: _392  and  _395
REMARK  161  A    between atoms: _395  and  _396
REMARK  162  A    between atoms: _396  and  _397
REMARK  163  A    between atoms: _397  and  _398
REMARK  164  A    between atoms: _398  and  _399
REMARK  165  A    between atoms: _403  and  _405
REMARK  166  A    between atoms: _405  and  _406
REMARK  167  A    between atoms: _405  and  _408
REMARK  168  A    between atoms: _408  and  _409
REMARK  169  A    between atoms: _409  and  _410
REMARK  170  A    between atoms: _412  and  _414
REMARK  171  A    between atoms: _414  and  _415
REMARK  172  A    between atoms: _414  and  _417
REMARK  173  A    between atoms: _417  and  _418
REMARK  174  A    between atoms: _421  and  _423
REMARK  175  A    between atoms: _423  and  _424
REMARK  176  A    between atoms: _426  and  _428
REMARK  177  A    between atoms: _428  and  _429
REMARK  178  A    between atoms: _431  and  _433
REMARK  179  A    between atoms: _433  and  _434
REMARK  180  A    between atoms: _433  and  _436
REMARK  181  A    between atoms: _436  and  _437
REMARK  182  A    between atoms: _440  and  _442
REMARK  183  A    between atoms: _442  and  _443
REMARK  184  A    between atoms: _445  and  _447
REMARK  185  A    between atoms: _447  and  _448
REMARK  186  A    between atoms: _450  and  _452
REMARK  187  A    between atoms: _452  and  _453
REMARK  188  A    between atoms: _452  and  _455
REMARK  189  A    between atoms: _455  and  _456
REMARK  190  A    between atoms: _462  and  _464
REMARK  191  A    between atoms: _464  and  _465
REMARK  192  A    between atoms: _464  and  _467
REMARK  193  A    between atoms: _467  and  _468
REMARK  194  A    between atoms: _471  and  _473
REMARK  195  A    between atoms: _473  and  _474
REMARK  196  A    between atoms: _473  and  _476
REMARK  197  A    between atoms: _476  and  _477
REMARK  198  A    between atoms: _480  and  _482
REMARK  199  A    between atoms: _482  and  _483
REMARK  200  A    between atoms: _482  and  _485
REMARK  201  A    between atoms: _485  and  _486
REMARK  202  A    between atoms: _490  and  _491
REMARK  203  A    between atoms: _496  and  _498
REMARK  204  A    between atoms: _498  and  _499
REMARK  205  A    between atoms: _498  and  _501
REMARK  206  A    between atoms: _504  and  _506
REMARK  207  A    between atoms: _506  and  _507
REMARK  208  A    between atoms: _506  and  _509
REMARK  209  A    between atoms: _509  and  _510
REMARK  210  A    between atoms: _515  and  _517
REMARK  211  A    between atoms: _517  and  _518
REMARK  212  A    between atoms: _517  and  _520
REMARK  213  A    between atoms: _520  and  _521
REMARK  214  A    between atoms: _524  and  _526
REMARK  215  A    between atoms: _526  and  _527
REMARK  216  A    between atoms: _529  and  _531
REMARK  217  A    between atoms: _531  and  _532
REMARK  218  A    between atoms: _531  and  _534
REMARK  219  A    between atoms: _534  and  _535
REMARK  220  A    between atoms: _535  and  _536
REMARK  221  A    between atoms: _536  and  _537
REMARK  222  A    between atoms: _546  and  _548
REMARK  223  A    between atoms: _548  and  _549
REMARK  224  A    between atoms: _548  and  _551
REMARK  225  A    between atoms: _551  and  _552
REMARK                            x       y       z     vdW  Elec       q    Type
REMARK                         _______ _______ _______ _____ _____    ______ ____
ROOT
ATOM      1  O   HOH     1      21.154  35.645  17.651  0.00  0.00    +0.000 OA
ENDROOT
TORSDOF 0
REMARK  Name = ../refined-set-2016/4dfg/4dfg_pocket.pdb
REMARK  225 active torsions:
REMARK  status: ('A' for Active; 'I' for Inactive)
REMARK    1  A    between atoms: _1  and  _3
REMARK    2  A    between atoms: _3  and  _4
REMARK    3  A    between atoms: _3  and  _6
REMARK    4  A    between atoms: _6  and  _7
REMARK    5  A    between atoms: _7  and  _8
REMARK    6  A    between atoms: _8  and  _9
REMARK    7  A    between atoms: _18  and  _20
REMARK    8  A    between atoms: _20  and  _21
REMARK    9  A    between atoms: _20  and  _23
REMARK   10  A    between atoms: _23  and  _24
REMARK   11  A    between atoms: _27  and  _29
REMARK   12  A    between atoms: _29  and  _30
REMARK   13  A    between atoms: _29  and  _32
REMARK   14  A    between atoms: _32  and  _33
REMARK   15  A    between atoms: _36  and  _38
REMARK   16  A    between atoms: _38  and  _39
REMARK   17  A    between atoms: _38  and  _41
REMARK   18  A    between atoms: _41  and  _42
REMARK   19  A    between atoms: _45  and  _47
REMARK   20  A    between atoms: _47  and  _48
REMARK   21  A    between atoms: _47  and  _50
REMARK   22  A    between atoms: _50  and  _51
REMARK   23  A    between atoms: _54  and  _56
REMARK   24  A    between atoms: _56  and  _57
REMARK   25  A    between atoms: _59  and  _61
REMARK   26  A    between atoms: _61  and  _62
REMARK   27  A    between atoms: _65  and  _67
REMARK   28  A    between atoms: _67  and  _68
REMARK   29  A    between atoms: _67  and  _70
REMARK   30  A    between atoms: _70  and  _71
REMARK   31  A    between atoms: _74  and  _76
REMARK   32  A    between atoms: _76  and  _77
REMARK   33  A    between atoms: _76  and  _79
REMARK   34  A    between atoms: _79  and  _80
REMARK   35  A    between atoms: _83  and  _85
REMARK   36  A    between atoms: _85  and  _86
REMARK   37  A    between atoms: _85  and  _88
REMARK   38  A    between atoms: _88  and  _89
REMARK   39  A    between atoms: _92  and  _94
REMARK   40  A    between atoms: _94  and  _95
REMARK   41  A    between atoms: _94  and  _97
REMARK   42  A    between atoms: _100  and  _102
REMARK   43  A    between atoms: _102  and  _103
REMARK   44  A    between atoms: _102  and  _105
REMARK   45  A    between atoms: _105  and  _106
REMARK   46  A    between atoms: _106  and  _107
REMARK   47  A    between atoms: _107  and  _108
REMARK   48  A    between atoms: _108  and  _109
REMARK   49  A    between atoms: _113  and  _115
REMARK   50  A    between atoms: _115  and  _116
REMARK   51  A    between atoms: _115  and  _118
REMARK   52  A    between atoms: _118  and  _119
REMARK   53  A    between atoms: _119  and  _120
REMARK   54  A    between atoms: _122  and  _124
REMARK   55  A    between atoms: _124  and  _125
REMARK   56  A    between atoms: _124  and  _127
REMARK   57  A    between atoms: _127  and  _128
REMARK   58  A    between atoms: _131  and  _133
REMARK   59  A    between atoms: _133  and  _134
REMARK   60  A    between atoms: _136  and  _138
REMARK   61  A    between atoms: _138  and  _139
REMARK   62  A    between atoms: _141  and  _143
REMARK   63  A    between atoms: _143  and  _144
REMARK   64  A    between atoms: _143  and  _146
REMARK   65  A    between atoms: _146  and  _147
REMARK   66  A    between atoms: _150  and  _152
REMARK   67  A    between atoms: _152  and  _153
REMARK   68  A    between atoms: _155  and  _157
REMARK   69  A    between atoms: _157  and  _158
REMARK   70  A    between atoms: _160  and  _162
REMARK   71  A    between atoms: _162  and  _163
REMARK   72  A    between atoms: _162  and  _165
REMARK   73  A    between atoms: _165  and  _166
REMARK   74  A    between atoms: _172  and  _174
REMARK   75  A    between atoms: _174  and  _175
REMARK   76  A    between atoms: _174  and  _177
REMARK   77  A    between atoms: _177  and  _178
REMARK   78  A    between atoms: _181  and  _183
REMARK   79  A    between atoms: _183  and  _184
REMARK   80  A    between atoms: _183  and  _186
REMARK   81  A    between atoms: _189  and  _191
REMARK   82  A    between atoms: _191  and  _192
REMARK   83  A    between atoms: _191  and  _194
REMARK   84  A    between atoms: _194  and  _195
REMARK   85  A    between atoms: _199  and  _200
REMARK   86  A    between atoms: _205  and  _207
REMARK   87  A    between atoms: _207  and  _208
REMARK   88  A    between atoms: _207  and  _210
REMARK   89  A    between atoms: _210  and  _211
REMARK   90  A    between atoms: _215  and  _216
REMARK   91  A    between atoms: _221  and  _223
REMARK   92  A    between atoms: _223  and  _224
REMARK   93  A    between atoms: _223  and  _226
REMARK   94  A    between atoms: _229  and  _231
REMARK   95  A    between atoms: _231  and  _232
REMARK   96  A    between atoms: _231  and  _234
REMARK   97  A    between atoms: _234  and  _235
REMARK   98  A    between atoms: _240  and  _242
REMARK   99  A    between atoms: _242  and  _243
REMARK  100  A    between atoms: _242  and  _245
REMARK  101  A    between atoms: _245  and  _246
REMARK  102  A    between atoms: _249  and  _251
REMARK  103  A    between atoms: _251  and  _252
REMARK  104  A    between atoms: _251  and  _254
REMARK  105  A    between atoms: _254  and  _255
REMARK  106  A    between atoms: _258  and  _260
REMARK  107  A    between atoms: _260  and  _261
REMARK  108  A    between atoms: _263  and  _265
REMARK  109  A    between atoms: _265  and  _266
REMARK  110  A    between atoms: _265  and  _268
REMARK  111  A    between atoms: _269  and  _270
REMARK  112  A    between atoms: _270  and  _271
REMARK  113  A    between atoms: _280  and  _282
REMARK  114  A    between atoms: _282  and  _283
REMARK  115  A    between atoms: _282  and  _285
REMARK  116  A    between atoms: _285  and  _286
REMARK  117  A    between atoms: _291  and  _293
REMARK  118  A    between atoms: _293  and  _294
REMARK  119  A    between atoms: _293  and  _296
REMARK  120  A    between atoms: _296  and  _297
REMARK  121  A    between atoms: _297  and  _298
REMARK  122  A    between atoms: _298  and  _299
REMARK  123  A    between atoms: _308  and  _310
REMARK  124  A    between atoms: _310  and  _311
REMARK  125  A    between atoms: _310  and  _313
REMARK  126  A    between atoms: _313  and  _314
REMARK  127  A    between atoms: _317  and  _319
REMARK  128  A    between atoms: _319  and  _320
REMARK  129  A    between atoms: _319  and  _322
REMARK  130  A    between atoms: _322  and  _323
REMARK  131  A    between atoms: _326  and  _328
REMARK  132  A    between atoms: _328  and  _329
REMARK  133  A    between atoms: _328  and  _331
REMARK  134  A    between atoms: _331  and  _332
REMARK  135  A    between atoms: _335  and  _337
REMARK  136  A    between atoms: _337  and  _338
REMARK  137  A    between atoms: _337  and  _340
REMARK  138  A    between atoms: _340  and  _341
REMARK  139  A    between atoms: _344  and  _346
REMARK  140  A    between atoms: _346  and  _347
REMARK  141  A    between atoms: _349  and  _351
REMARK  142  A    between atoms: _351  and  _352
REMARK  143  A    between atoms: _355  and  _357
REMARK  144  A    between atoms: _357  and  _358
REMARK  145  A    between atoms: _357  and  _360
REMARK  146  A    between atoms: _360  and  _361
REMARK  147  A    between atoms: _364  and  _366
REMARK  148  A    between atoms: _366  and  _367
REMARK  149  A    between atoms: _366  and  _369
REMARK  150  A    between atoms: _369  and  _370
REMARK  151  A    between atoms: _373  and  _375
REMARK  152  A    between atoms: _375  and  _376
REMARK  153  A    between atoms: _375  and  _378
REMARK  154  A    between atoms: _378  and  _379
REMARK  155  A    between atoms: _382  and  _384
REMARK  156  A    between atoms: _384  and  _385
REMARK  157  A    between atoms: _384  and  _387
REMARK  158  A    between atoms: _390  and  _392
REMARK  159  A    between atoms: _392  and  _393
REMARK  160  A    between atoms: _392  and  _395
REMARK  161  A    between atoms: _395  and  _396
REMARK  162  A    between atoms: _396  and  _397
REMARK  163  A    between atoms: _397  and  _398
REMARK  164  A    between atoms: _398  and  _399
REMARK  165  A    between atoms: _403  and  _405
REMARK  166  A    between atoms: _405  and  _406
REMARK  167  A    between atoms: _405  and  _408
REMARK  168  A    between atoms: _408  and  _409
REMARK  169  A    between atoms: _409  and  _410
REMARK  170  A    between atoms: _412  and  _414
REMARK  171  A    between atoms: _414  and  _415
REMARK  172  A    between atoms: _414  and  _417
REMARK  173  A    between atoms: _417  and  _418
REMARK  174  A    between atoms: _421  and  _423
REMARK  175  A    between atoms: _423  and  _424
REMARK  176  A    between atoms: _426  and  _428
REMARK  177  A    between atoms: _428  and  _429
REMARK  178  A    between atoms: _431  and  _433
REMARK  179  A    between atoms: _433  and  _434
REMARK  180  A    between atoms: _433  and  _436
REMARK  181  A    between atoms: _436  and  _437
REMARK  182  A    between atoms: _440  and  _442
REMARK  183  A    between atoms: _442  and  _443
REMARK  184  A    between atoms: _445  and  _447
REMARK  185  A    between atoms: _447  and  _448
REMARK  186  A    between atoms: _450  and  _452
REMARK  187  A    between atoms: _452  and  _453
REMARK  188  A    between atoms: _452  and  _455
REMARK  189  A    between atoms: _455  and  _456
REMARK  190  A    between atoms: _462  and  _464
REMARK  191  A    between atoms: _464  and  _465
REMARK  192  A    between atoms: _464  and  _467
REMARK  193  A    between atoms: _467  and  _468
REMARK  194  A    between atoms: _471  and  _473
REMARK  195  A    between atoms: _473  and  _474
REMARK  196  A    between atoms: _473  and  _476
REMARK  197  A    between atoms: _476  and  _477
REMARK  198  A    between atoms: _480  and  _482
REMARK  199  A    between atoms: _482  and  _483
REMARK  200  A    between atoms: _482  and  _485
REMARK  201  A    between atoms: _485  and  _486
REMARK  202  A    between atoms: _490  and  _491
REMARK  203  A    between atoms: _496  and  _498
REMARK  204  A    between atoms: _498  and  _499
REMARK  205  A    between atoms: _498  and  _501
REMARK  206  A    between atoms: _504  and  _506
REMARK  207  A    between atoms: _506  and  _507
REMARK  208  A    between atoms: _506  and  _509
REMARK  209  A    between atoms: _509  and  _510
REMARK  210  A    between atoms: _515  and  _517
REMARK  211  A    between atoms: _517  and  _518
REMARK  212  A    between atoms: _517  and  _520
REMARK  213  A    between atoms: _520  and  _521
REMARK  214  A    between atoms: _524  and  _526
REMARK  215  A    between atoms: _526  and  _527
REMARK  216  A    between atoms: _529  and  _531
REMARK  217  A    between atoms: _531  and  _532
REMARK  218  A    between atoms: _531  and  _534
REMARK  219  A    between atoms: _534  and  _535
REMARK  220  A    between atoms: _535  and  _536
REMARK  221  A    between atoms: _536  and  _537
REMARK  222  A    between atoms: _546  and  _548
REMARK  223  A    between atoms: _548  and  _549
REMARK  224  A    between atoms: _548  and  _551
REMARK  225  A    between atoms: _551  and  _552
REMARK                            x       y       z     vdW  Elec       q    Type
REMARK                         _______ _______ _______ _____ _____    ______ ____
ROOT
ATOM      1  O   HOH     1      25.419  33.756  11.404  0.00  0.00    +0.000 OA
ENDROOT
TORSDOF 0
REMARK  Name = ../refined-set-2016/4dfg/4dfg_pocket.pdb
REMARK  225 active torsions:
REMARK  status: ('A' for Active; 'I' for Inactive)
REMARK    1  A    between atoms: _1  and  _3
REMARK    2  A    between atoms: _3  and  _4
REMARK    3  A    between atoms: _3  and  _6
REMARK    4  A    between atoms: _6  and  _7
REMARK    5  A    between atoms: _7  and  _8
REMARK    6  A    between atoms: _8  and  _9
REMARK    7  A    between atoms: _18  and  _20
REMARK    8  A    between atoms: _20  and  _21
REMARK    9  A    between atoms: _20  and  _23
REMARK   10  A    between atoms: _23  and  _24
REMARK   11  A    between atoms: _27  and  _29
REMARK   12  A    between atoms: _29  and  _30
REMARK   13  A    between atoms: _29  and  _32
REMARK   14  A    between atoms: _32  and  _33
REMARK   15  A    between atoms: _36  and  _38
REMARK   16  A    between atoms: _38  and  _39
REMARK   17  A    between atoms: _38  and  _41
REMARK   18  A    between atoms: _41  and  _42
REMARK   19  A    between atoms: _45  and  _47
REMARK   20  A    between atoms: _47  and  _48
REMARK   21  A    between atoms: _47  and  _50
REMARK   22  A    between atoms: _50  and  _51
REMARK   23  A    between atoms: _54  and  _56
REMARK   24  A    between atoms: _56  and  _57
REMARK   25  A    between atoms: _59  and  _61
REMARK   26  A    between atoms: _61  and  _62
REMARK   27  A    between atoms: _65  and  _67
REMARK   28  A    between atoms: _67  and  _68
REMARK   29  A    between atoms: _67  and  _70
REMARK   30  A    between atoms: _70  and  _71
REMARK   31  A    between atoms: _74  and  _76
REMARK   32  A    between atoms: _76  and  _77
REMARK   33  A    between atoms: _76  and  _79
REMARK   34  A    between atoms: _79  and  _80
REMARK   35  A    between atoms: _83  and  _85
REMARK   36  A    between atoms: _85  and  _86
REMARK   37  A    between atoms: _85  and  _88
REMARK   38  A    between atoms: _88  and  _89
REMARK   39  A    between atoms: _92  and  _94
REMARK   40  A    between atoms: _94  and  _95
REMARK   41  A    between atoms: _94  and  _97
REMARK   42  A    between atoms: _100  and  _102
REMARK   43  A    between atoms: _102  and  _103
REMARK   44  A    between atoms: _102  and  _105
REMARK   45  A    between atoms: _105  and  _106
REMARK   46  A    between atoms: _106  and  _107
REMARK   47  A    between atoms: _107  and  _108
REMARK   48  A    between atoms: _108  and  _109
REMARK   49  A    between atoms: _113  and  _115
REMARK   50  A    between atoms: _115  and  _116
REMARK   51  A    between atoms: _115  and  _118
REMARK   52  A    between atoms: _118  and  _119
REMARK   53  A    between atoms: _119  and  _120
REMARK   54  A    between atoms: _122  and  _124
REMARK   55  A    between atoms: _124  and  _125
REMARK   56  A    between atoms: _124  and  _127
REMARK   57  A    between atoms: _127  and  _128
REMARK   58  A    between atoms: _131  and  _133
REMARK   59  A    between atoms: _133  and  _134
REMARK   60  A    between atoms: _136  and  _138
REMARK   61  A    between atoms: _138  and  _139
REMARK   62  A    between atoms: _141  and  _143
REMARK   63  A    between atoms: _143  and  _144
REMARK   64  A    between atoms: _143  and  _146
REMARK   65  A    between atoms: _146  and  _147
REMARK   66  A    between atoms: _150  and  _152
REMARK   67  A    between atoms: _152  and  _153
REMARK   68  A    between atoms: _155  and  _157
REMARK   69  A    between atoms: _157  and  _158
REMARK   70  A    between atoms: _160  and  _162
REMARK   71  A    between atoms: _162  and  _163
REMARK   72  A    between atoms: _162  and  _165
REMARK   73  A    between atoms: _165  and  _166
REMARK   74  A    between atoms: _172  and  _174
REMARK   75  A    between atoms: _174  and  _175
REMARK   76  A    between atoms: _174  and  _177
REMARK   77  A    between atoms: _177  and  _178
REMARK   78  A    between atoms: _181  and  _183
REMARK   79  A    between atoms: _183  and  _184
REMARK   80  A    between atoms: _183  and  _186
REMARK   81  A    between atoms: _189  and  _191
REMARK   82  A    between atoms: _191  and  _192
REMARK   83  A    between atoms: _191  and  _194
REMARK   84  A    between atoms: _194  and  _195
REMARK   85  A    between atoms: _199  and  _200
REMARK   86  A    between atoms: _205  and  _207
REMARK   87  A    between atoms: _207  and  _208
REMARK   88  A    between atoms: _207  and  _210
REMARK   89  A    between atoms: _210  and  _211
REMARK   90  A    between atoms: _215  and  _216
REMARK   91  A    between atoms: _221  and  _223
REMARK   92  A    between atoms: _223  and  _224
REMARK   93  A    between atoms: _223  and  _226
REMARK   94  A    between atoms: _229  and  _231
REMARK   95  A    between atoms: _231  and  _232
REMARK   96  A    between atoms: _231  and  _234
REMARK   97  A    between atoms: _234  and  _235
REMARK   98  A    between atoms: _240  and  _242
REMARK   99  A    between atoms: _242  and  _243
REMARK  100  A    between atoms: _242  and  _245
REMARK  101  A    between atoms: _245  and  _246
REMARK  102  A    between atoms: _249  and  _251
REMARK  103  A    between atoms: _251  and  _252
REMARK  104  A    between atoms: _251  and  _254
REMARK  105  A    between atoms: _254  and  _255
REMARK  106  A    between atoms: _258  and  _260
REMARK  107  A    between atoms: _260  and  _261
REMARK  108  A    between atoms: _263  and  _265
REMARK  109  A    between atoms: _265  and  _266
REMARK  110  A    between atoms: _265  and  _268
REMARK  111  A    between atoms: _269  and  _270
REMARK  112  A    between atoms: _270  and  _271
REMARK  113  A    between atoms: _280  and  _282
REMARK  114  A    between atoms: _282  and  _283
REMARK  115  A    between atoms: _282  and  _285
REMARK  116  A    between atoms: _285  and  _286
REMARK  117  A    between atoms: _291  and  _293
REMARK  118  A    between atoms: _293  and  _294
REMARK  119  A    between atoms: _293  and  _296
REMARK  120  A    between atoms: _296  and  _297
REMARK  121  A    between atoms: _297  and  _298
REMARK  122  A    between atoms: _298  and  _299
REMARK  123  A    between atoms: _308  and  _310
REMARK  124  A    between atoms: _310  and  _311
REMARK  125  A    between atoms: _310  and  _313
REMARK  126  A    between atoms: _313  and  _314
REMARK  127  A    between atoms: _317  and  _319
REMARK  128  A    between atoms: _319  and  _320
REMARK  129  A    between atoms: _319  and  _322
REMARK  130  A    between atoms: _322  and  _323
REMARK  131  A    between atoms: _326  and  _328
REMARK  132  A    between atoms: _328  and  _329
REMARK  133  A    between atoms: _328  and  _331
REMARK  134  A    between atoms: _331  and  _332
REMARK  135  A    between atoms: _335  and  _337
REMARK  136  A    between atoms: _337  and  _338
REMARK  137  A    between atoms: _337  and  _340
REMARK  138  A    between atoms: _340  and  _341
REMARK  139  A    between atoms: _344  and  _346
REMARK  140  A    between atoms: _346  and  _347
REMARK  141  A    between atoms: _349  and  _351
REMARK  142  A    between atoms: _351  and  _352
REMARK  143  A    between atoms: _355  and  _357
REMARK  144  A    between atoms: _357  and  _358
REMARK  145  A    between atoms: _357  and  _360
REMARK  146  A    between atoms: _360  and  _361
REMARK  147  A    between atoms: _364  and  _366
REMARK  148  A    between atoms: _366  and  _367
REMARK  149  A    between atoms: _366  and  _369
REMARK  150  A    between atoms: _369  and  _370
REMARK  151  A    between atoms: _373  and  _375
REMARK  152  A    between atoms: _375  and  _376
REMARK  153  A    between atoms: _375  and  _378
REMARK  154  A    between atoms: _378  and  _379
REMARK  155  A    between atoms: _382  and  _384
REMARK  156  A    between atoms: _384  and  _385
REMARK  157  A    between atoms: _384  and  _387
REMARK  158  A    between atoms: _390  and  _392
REMARK  159  A    between atoms: _392  and  _393
REMARK  160  A    between atoms: _392  and  _395
REMARK  161  A    between atoms: _395  and  _396
REMARK  162  A    between atoms: _396  and  _397
REMARK  163  A    between atoms: _397  and  _398
REMARK  164  A    between atoms: _398  and  _399
REMARK  165  A    between atoms: _403  and  _405
REMARK  166  A    between atoms: _405  and  _406
REMARK  167  A    between atoms: _405  and  _408
REMARK  168  A    between atoms: _408  and  _409
REMARK  169  A    between atoms: _409  and  _410
REMARK  170  A    between atoms: _412  and  _414
REMARK  171  A    between atoms: _414  and  _415
REMARK  172  A    between atoms: _414  and  _417
REMARK  173  A    between atoms: _417  and  _418
REMARK  174  A    between atoms: _421  and  _423
REMARK  175  A    between atoms: _423  and  _424
REMARK  176  A    between atoms: _426  and  _428
REMARK  177  A    between atoms: _428  and  _429
REMARK  178  A    between atoms: _431  and  _433
REMARK  179  A    between atoms: _433  and  _434
REMARK  180  A    between atoms: _433  and  _436
REMARK  181  A    between atoms: _436  and  _437
REMARK  182  A    between atoms: _440  and  _442
REMARK  183  A    between atoms: _442  and  _443
REMARK  184  A    between atoms: _445  and  _447
REMARK  185  A    between atoms: _447  and  _448
REMARK  186  A    between atoms: _450  and  _452
REMARK  187  A    between atoms: _452  and  _453
REMARK  188  A    between atoms: _452  and  _455
REMARK  189  A    between atoms: _455  and  _456
REMARK  190  A    between atoms: _462  and  _464
REMARK  191  A    between atoms: _464  and  _465
REMARK  192  A    between atoms: _464  and  _467
REMARK  193  A    between atoms: _467  and  _468
REMARK  194  A    between atoms: _471  and  _473
REMARK  195  A    between atoms: _473  and  _474
REMARK  196  A    between atoms: _473  and  _476
REMARK  197  A    between atoms: _476  and  _477
REMARK  198  A    between atoms: _480  and  _482
REMARK  199  A    between atoms: _482  and  _483
REMARK  200  A    between atoms: _482  and  _485
REMARK  201  A    between atoms: _485  and  _486
REMARK  202  A    between atoms: _490  and  _491
REMARK  203  A    between atoms: _496  and  _498
REMARK  204  A    between atoms: _498  and  _499
REMARK  205  A    between atoms: _498  and  _501
REMARK  206  A    between atoms: _504  and  _506
REMARK  207  A    between atoms: _506  and  _507
REMARK  208  A    between atoms: _506  and  _509
REMARK  209  A    between atoms: _509  and  _510
REMARK  210  A    between atoms: _515  and  _517
REMARK  211  A    between atoms: _517  and  _518
REMARK  212  A    between atoms: _517  and  _520
REMARK  213  A    between atoms: _520  and  _521
REMARK  214  A    between atoms: _524  and  _526
REMARK  215  A    between atoms: _526  and  _527
REMARK  216  A    between atoms: _529  and  _531
REMARK  217  A    between atoms: _531  and  _532
REMARK  218  A    between atoms: _531  and  _534
REMARK  219  A    between atoms: _534  and  _535
REMARK  220  A    between atoms: _535  and  _536
REMARK  221  A    between atoms: _536  and  _537
REMARK  222  A    between atoms: _546  and  _548
REMARK  223  A    between atoms: _548  and  _549
REMARK  224  A    between atoms: _548  and  _551
REMARK  225  A    between atoms: _551  and  _552
REMARK                            x       y       z     vdW  Elec       q    Type
REMARK                         _______ _______ _______ _____ _____    ______ ____
ROOT
ATOM      1  O   HOH     1       4.415  21.247  11.545  0.00  0.00    +0.000 OA
ENDROOT
TORSDOF 0
REMARK  Name = ../refined-set-2016/4dfg/4dfg_pocket.pdb
REMARK  225 active torsions:
REMARK  status: ('A' for Active; 'I' for Inactive)
REMARK    1  A    between atoms: _1  and  _3
REMARK    2  A    between atoms: _3  and  _4
REMARK    3  A    between atoms: _3  and  _6
REMARK    4  A    between atoms: _6  and  _7
REMARK    5  A    between atoms: _7  and  _8
REMARK    6  A    between atoms: _8  and  _9
REMARK    7  A    between atoms: _18  and  _20
REMARK    8  A    between atoms: _20  and  _21
REMARK    9  A    between atoms: _20  and  _23
REMARK   10  A    between atoms: _23  and  _24
REMARK   11  A    between atoms: _27  and  _29
REMARK   12  A    between atoms: _29  and  _30
REMARK   13  A    between atoms: _29  and  _32
REMARK   14  A    between atoms: _32  and  _33
REMARK   15  A    between atoms: _36  and  _38
REMARK   16  A    between atoms: _38  and  _39
REMARK   17  A    between atoms: _38  and  _41
REMARK   18  A    between atoms: _41  and  _42
REMARK   19  A    between atoms: _45  and  _47
REMARK   20  A    between atoms: _47  and  _48
REMARK   21  A    between atoms: _47  and  _50
REMARK   22  A    between atoms: _50  and  _51
REMARK   23  A    between atoms: _54  and  _56
REMARK   24  A    between atoms: _56  and  _57
REMARK   25  A    between atoms: _59  and  _61
REMARK   26  A    between atoms: _61  and  _62
REMARK   27  A    between atoms: _65  and  _67
REMARK   28  A    between atoms: _67  and  _68
REMARK   29  A    between atoms: _67  and  _70
REMARK   30  A    between atoms: _70  and  _71
REMARK   31  A    between atoms: _74  and  _76
REMARK   32  A    between atoms: _76  and  _77
REMARK   33  A    between atoms: _76  and  _79
REMARK   34  A    between atoms: _79  and  _80
REMARK   35  A    between atoms: _83  and  _85
REMARK   36  A    between atoms: _85  and  _86
REMARK   37  A    between atoms: _85  and  _88
REMARK   38  A    between atoms: _88  and  _89
REMARK   39  A    between atoms: _92  and  _94
REMARK   40  A    between atoms: _94  and  _95
REMARK   41  A    between atoms: _94  and  _97
REMARK   42  A    between atoms: _100  and  _102
REMARK   43  A    between atoms: _102  and  _103
REMARK   44  A    between atoms: _102  and  _105
REMARK   45  A    between atoms: _105  and  _106
REMARK   46  A    between atoms: _106  and  _107
REMARK   47  A    between atoms: _107  and  _108
REMARK   48  A    between atoms: _108  and  _109
REMARK   49  A    between atoms: _113  and  _115
REMARK   50  A    between atoms: _115  and  _116
REMARK   51  A    between atoms: _115  and  _118
REMARK   52  A    between atoms: _118  and  _119
REMARK   53  A    between atoms: _119  and  _120
REMARK   54  A    between atoms: _122  and  _124
REMARK   55  A    between atoms: _124  and  _125
REMARK   56  A    between atoms: _124  and  _127
REMARK   57  A    between atoms: _127  and  _128
REMARK   58  A    between atoms: _131  and  _133
REMARK   59  A    between atoms: _133  and  _134
REMARK   60  A    between atoms: _136  and  _138
REMARK   61  A    between atoms: _138  and  _139
REMARK   62  A    between atoms: _141  and  _143
REMARK   63  A    between atoms: _143  and  _144
REMARK   64  A    between atoms: _143  and  _146
REMARK   65  A    between atoms: _146  and  _147
REMARK   66  A    between atoms: _150  and  _152
REMARK   67  A    between atoms: _152  and  _153
REMARK   68  A    between atoms: _155  and  _157
REMARK   69  A    between atoms: _157  and  _158
REMARK   70  A    between atoms: _160  and  _162
REMARK   71  A    between atoms: _162  and  _163
REMARK   72  A    between atoms: _162  and  _165
REMARK   73  A    between atoms: _165  and  _166
REMARK   74  A    between atoms: _172  and  _174
REMARK   75  A    between atoms: _174  and  _175
REMARK   76  A    between atoms: _174  and  _177
REMARK   77  A    between atoms: _177  and  _178
REMARK   78  A    between atoms: _181  and  _183
REMARK   79  A    between atoms: _183  and  _184
REMARK   80  A    between atoms: _183  and  _186
REMARK   81  A    between atoms: _189  and  _191
REMARK   82  A    between atoms: _191  and  _192
REMARK   83  A    between atoms: _191  and  _194
REMARK   84  A    between atoms: _194  and  _195
REMARK   85  A    between atoms: _199  and  _200
REMARK   86  A    between atoms: _205  and  _207
REMARK   87  A    between atoms: _207  and  _208
REMARK   88  A    between atoms: _207  and  _210
REMARK   89  A    between atoms: _210  and  _211
REMARK   90  A    between atoms: _215  and  _216
REMARK   91  A    between atoms: _221  and  _223
REMARK   92  A    between atoms: _223  and  _224
REMARK   93  A    between atoms: _223  and  _226
REMARK   94  A    between atoms: _229  and  _231
REMARK   95  A    between atoms: _231  and  _232
REMARK   96  A    between atoms: _231  and  _234
REMARK   97  A    between atoms: _234  and  _235
REMARK   98  A    between atoms: _240  and  _242
REMARK   99  A    between atoms: _242  and  _243
REMARK  100  A    between atoms: _242  and  _245
REMARK  101  A    between atoms: _245  and  _246
REMARK  102  A    between atoms: _249  and  _251
REMARK  103  A    between atoms: _251  and  _252
REMARK  104  A    between atoms: _251  and  _254
REMARK  105  A    between atoms: _254  and  _255
REMARK  106  A    between atoms: _258  and  _260
REMARK  107  A    between atoms: _260  and  _261
REMARK  108  A    between atoms: _263  and  _265
REMARK  109  A    between atoms: _265  and  _266
REMARK  110  A    between atoms: _265  and  _268
REMARK  111  A    between atoms: _269  and  _270
REMARK  112  A    between atoms: _270  and  _271
REMARK  113  A    between atoms: _280  and  _282
REMARK  114  A    between atoms: _282  and  _283
REMARK  115  A    between atoms: _282  and  _285
REMARK  116  A    between atoms: _285  and  _286
REMARK  117  A    between atoms: _291  and  _293
REMARK  118  A    between atoms: _293  and  _294
REMARK  119  A    between atoms: _293  and  _296
REMARK  120  A    between atoms: _296  and  _297
REMARK  121  A    between atoms: _297  and  _298
REMARK  122  A    between atoms: _298  and  _299
REMARK  123  A    between atoms: _308  and  _310
REMARK  124  A    between atoms: _310  and  _311
REMARK  125  A    between atoms: _310  and  _313
REMARK  126  A    between atoms: _313  and  _314
REMARK  127  A    between atoms: _317  and  _319
REMARK  128  A    between atoms: _319  and  _320
REMARK  129  A    between atoms: _319  and  _322
REMARK  130  A    between atoms: _322  and  _323
REMARK  131  A    between atoms: _326  and  _328
REMARK  132  A    between atoms: _328  and  _329
REMARK  133  A    between atoms: _328  and  _331
REMARK  134  A    between atoms: _331  and  _332
REMARK  135  A    between atoms: _335  and  _337
REMARK  136  A    between atoms: _337  and  _338
REMARK  137  A    between atoms: _337  and  _340
REMARK  138  A    between atoms: _340  and  _341
REMARK  139  A    between atoms: _344  and  _346
REMARK  140  A    between atoms: _346  and  _347
REMARK  141  A    between atoms: _349  and  _351
REMARK  142  A    between atoms: _351  and  _352
REMARK  143  A    between atoms: _355  and  _357
REMARK  144  A    between atoms: _357  and  _358
REMARK  145  A    between atoms: _357  and  _360
REMARK  146  A    between atoms: _360  and  _361
REMARK  147  A    between atoms: _364  and  _366
REMARK  148  A    between atoms: _366  and  _367
REMARK  149  A    between atoms: _366  and  _369
REMARK  150  A    between atoms: _369  and  _370
REMARK  151  A    between atoms: _373  and  _375
REMARK  152  A    between atoms: _375  and  _376
REMARK  153  A    between atoms: _375  and  _378
REMARK  154  A    between atoms: _378  and  _379
REMARK  155  A    between atoms: _382  and  _384
REMARK  156  A    between atoms: _384  and  _385
REMARK  157  A    between atoms: _384  and  _387
REMARK  158  A    between atoms: _390  and  _392
REMARK  159  A    between atoms: _392  and  _393
REMARK  160  A    between atoms: _392  and  _395
REMARK  161  A    between atoms: _395  and  _396
REMARK  162  A    between atoms: _396  and  _397
REMARK  163  A    between atoms: _397  and  _398
REMARK  164  A    between atoms: _398  and  _399
REMARK  165  A    between atoms: _403  and  _405
REMARK  166  A    between atoms: _405  and  _406
REMARK  167  A    between atoms: _405  and  _408
REMARK  168  A    between atoms: _408  and  _409
REMARK  169  A    between atoms: _409  and  _410
REMARK  170  A    between atoms: _412  and  _414
REMARK  171  A    between atoms: _414  and  _415
REMARK  172  A    between atoms: _414  and  _417
REMARK  173  A    between atoms: _417  and  _418
REMARK  174  A    between atoms: _421  and  _423
REMARK  175  A    between atoms: _423  and  _424
REMARK  176  A    between atoms: _426  and  _428
REMARK  177  A    between atoms: _428  and  _429
REMARK  178  A    between atoms: _431  and  _433
REMARK  179  A    between atoms: _433  and  _434
REMARK  180  A    between atoms: _433  and  _436
REMARK  181  A    between atoms: _436  and  _437
REMARK  182  A    between atoms: _440  and  _442
REMARK  183  A    between atoms: _442  and  _443
REMARK  184  A    between atoms: _445  and  _447
REMARK  185  A    between atoms: _447  and  _448
REMARK  186  A    between atoms: _450  and  _452
REMARK  187  A    between atoms: _452  and  _453
REMARK  188  A    between atoms: _452  and  _455
REMARK  189  A    between atoms: _455  and  _456
REMARK  190  A    between atoms: _462  and  _464
REMARK  191  A    between atoms: _464  and  _465
REMARK  192  A    between atoms: _464  and  _467
REMARK  193  A    between atoms: _467  and  _468
REMARK  194  A    between atoms: _471  and  _473
REMARK  195  A    between atoms: _473  and  _474
REMARK  196  A    between atoms: _473  and  _476
REMARK  197  A    between atoms: _476  and  _477
REMARK  198  A    between atoms: _480  and  _482
REMARK  199  A    between atoms: _482  and  _483
REMARK  200  A    between atoms: _482  and  _485
REMARK  201  A    between atoms: _485  and  _486
REMARK  202  A    between atoms: _490  and  _491
REMARK  203  A    between atoms: _496  and  _498
REMARK  204  A    between atoms: _498  and  _499
REMARK  205  A    between atoms: _498  and  _501
REMARK  206  A    between atoms: _504  and  _506
REMARK  207  A    between atoms: _506  and  _507
REMARK  208  A    between atoms: _506  and  _509
REMARK  209  A    between atoms: _509  and  _510
REMARK  210  A    between atoms: _515  and  _517
REMARK  211  A    between atoms: _517  and  _518
REMARK  212  A    between atoms: _517  and  _520
REMARK  213  A    between atoms: _520  and  _521
REMARK  214  A    between atoms: _524  and  _526
REMARK  215  A    between atoms: _526  and  _527
REMARK  216  A    between atoms: _529  and  _531
REMARK  217  A    between atoms: _531  and  _532
REMARK  218  A    between atoms: _531  and  _534
REMARK  219  A    between atoms: _534  and  _535
REMARK  220  A    between atoms: _535  and  _536
REMARK  221  A    between atoms: _536  and  _537
REMARK  222  A    between atoms: _546  and  _548
REMARK  223  A    between atoms: _548  and  _549
REMARK  224  A    between atoms: _548  and  _551
REMARK  225  A    between atoms: _551  and  _552
REMARK                            x       y       z     vdW  Elec       q    Type
REMARK                         _______ _______ _______ _____ _____    ______ ____
ROOT
ATOM      1  O   HOH     1      25.330  30.208  17.345  0.00  0.00    +0.000 OA
ENDROOT
TORSDOF 0
REMARK  Name = ../refined-set-2016/4dfg/4dfg_pocket.pdb
REMARK  225 active torsions:
REMARK  status: ('A' for Active; 'I' for Inactive)
REMARK    1  A    between atoms: _1  and  _3
REMARK    2  A    between atoms: _3  and  _4
REMARK    3  A    between atoms: _3  and  _6
REMARK    4  A    between atoms: _6  and  _7
REMARK    5  A    between atoms: _7  and  _8
REMARK    6  A    between atoms: _8  and  _9
REMARK    7  A    between atoms: _18  and  _20
REMARK    8  A    between atoms: _20  and  _21
REMARK    9  A    between atoms: _20  and  _23
REMARK   10  A    between atoms: _23  and  _24
REMARK   11  A    between atoms: _27  and  _29
REMARK   12  A    between atoms: _29  and  _30
REMARK   13  A    between atoms: _29  and  _32
REMARK   14  A    between atoms: _32  and  _33
REMARK   15  A    between atoms: _36  and  _38
REMARK   16  A    between atoms: _38  and  _39
REMARK   17  A    between atoms: _38  and  _41
REMARK   18  A    between atoms: _41  and  _42
REMARK   19  A    between atoms: _45  and  _47
REMARK   20  A    between atoms: _47  and  _48
REMARK   21  A    between atoms: _47  and  _50
REMARK   22  A    between atoms: _50  and  _51
REMARK   23  A    between atoms: _54  and  _56
REMARK   24  A    between atoms: _56  and  _57
REMARK   25  A    between atoms: _59  and  _61
REMARK   26  A    between atoms: _61  and  _62
REMARK   27  A    between atoms: _65  and  _67
REMARK   28  A    between atoms: _67  and  _68
REMARK   29  A    between atoms: _67  and  _70
REMARK   30  A    between atoms: _70  and  _71
REMARK   31  A    between atoms: _74  and  _76
REMARK   32  A    between atoms: _76  and  _77
REMARK   33  A    between atoms: _76  and  _79
REMARK   34  A    between atoms: _79  and  _80
REMARK   35  A    between atoms: _83  and  _85
REMARK   36  A    between atoms: _85  and  _86
REMARK   37  A    between atoms: _85  and  _88
REMARK   38  A    between atoms: _88  and  _89
REMARK   39  A    between atoms: _92  and  _94
REMARK   40  A    between atoms: _94  and  _95
REMARK   41  A    between atoms: _94  and  _97
REMARK   42  A    between atoms: _100  and  _102
REMARK   43  A    between atoms: _102  and  _103
REMARK   44  A    between atoms: _102  and  _105
REMARK   45  A    between atoms: _105  and  _106
REMARK   46  A    between atoms: _106  and  _107
REMARK   47  A    between atoms: _107  and  _108
REMARK   48  A    between atoms: _108  and  _109
REMARK   49  A    between atoms: _113  and  _115
REMARK   50  A    between atoms: _115  and  _116
REMARK   51  A    between atoms: _115  and  _118
REMARK   52  A    between atoms: _118  and  _119
REMARK   53  A    between atoms: _119  and  _120
REMARK   54  A    between atoms: _122  and  _124
REMARK   55  A    between atoms: _124  and  _125
REMARK   56  A    between atoms: _124  and  _127
REMARK   57  A    between atoms: _127  and  _128
REMARK   58  A    between atoms: _131  and  _133
REMARK   59  A    between atoms: _133  and  _134
REMARK   60  A    between atoms: _136  and  _138
REMARK   61  A    between atoms: _138  and  _139
REMARK   62  A    between atoms: _141  and  _143
REMARK   63  A    between atoms: _143  and  _144
REMARK   64  A    between atoms: _143  and  _146
REMARK   65  A    between atoms: _146  and  _147
REMARK   66  A    between atoms: _150  and  _152
REMARK   67  A    between atoms: _152  and  _153
REMARK   68  A    between atoms: _155  and  _157
REMARK   69  A    between atoms: _157  and  _158
REMARK   70  A    between atoms: _160  and  _162
REMARK   71  A    between atoms: _162  and  _163
REMARK   72  A    between atoms: _162  and  _165
REMARK   73  A    between atoms: _165  and  _166
REMARK   74  A    between atoms: _172  and  _174
REMARK   75  A    between atoms: _174  and  _175
REMARK   76  A    between atoms: _174  and  _177
REMARK   77  A    between atoms: _177  and  _178
REMARK   78  A    between atoms: _181  and  _183
REMARK   79  A    between atoms: _183  and  _184
REMARK   80  A    between atoms: _183  and  _186
REMARK   81  A    between atoms: _189  and  _191
REMARK   82  A    between atoms: _191  and  _192
REMARK   83  A    between atoms: _191  and  _194
REMARK   84  A    between atoms: _194  and  _195
REMARK   85  A    between atoms: _199  and  _200
REMARK   86  A    between atoms: _205  and  _207
REMARK   87  A    between atoms: _207  and  _208
REMARK   88  A    between atoms: _207  and  _210
REMARK   89  A    between atoms: _210  and  _211
REMARK   90  A    between atoms: _215  and  _216
REMARK   91  A    between atoms: _221  and  _223
REMARK   92  A    between atoms: _223  and  _224
REMARK   93  A    between atoms: _223  and  _226
REMARK   94  A    between atoms: _229  and  _231
REMARK   95  A    between atoms: _231  and  _232
REMARK   96  A    between atoms: _231  and  _234
REMARK   97  A    between atoms: _234  and  _235
REMARK   98  A    between atoms: _240  and  _242
REMARK   99  A    between atoms: _242  and  _243
REMARK  100  A    between atoms: _242  and  _245
REMARK  101  A    between atoms: _245  and  _246
REMARK  102  A    between atoms: _249  and  _251
REMARK  103  A    between atoms: _251  and  _252
REMARK  104  A    between atoms: _251  and  _254
REMARK  105  A    between atoms: _254  and  _255
REMARK  106  A    between atoms: _258  and  _260
REMARK  107  A    between atoms: _260  and  _261
REMARK  108  A    between atoms: _263  and  _265
REMARK  109  A    between atoms: _265  and  _266
REMARK  110  A    between atoms: _265  and  _268
REMARK  111  A    between atoms: _269  and  _270
REMARK  112  A    between atoms: _270  and  _271
REMARK  113  A    between atoms: _280  and  _282
REMARK  114  A    between atoms: _282  and  _283
REMARK  115  A    between atoms: _282  and  _285
REMARK  116  A    between atoms: _285  and  _286
REMARK  117  A    between atoms: _291  and  _293
REMARK  118  A    between atoms: _293  and  _294
REMARK  119  A    between atoms: _293  and  _296
REMARK  120  A    between atoms: _296  and  _297
REMARK  121  A    between atoms: _297  and  _298
REMARK  122  A    between atoms: _298  and  _299
REMARK  123  A    between atoms: _308  and  _310
REMARK  124  A    between atoms: _310  and  _311
REMARK  125  A    between atoms: _310  and  _313
REMARK  126  A    between atoms: _313  and  _314
REMARK  127  A    between atoms: _317  and  _319
REMARK  128  A    between atoms: _319  and  _320
REMARK  129  A    between atoms: _319  and  _322
REMARK  130  A    between atoms: _322  and  _323
REMARK  131  A    between atoms: _326  and  _328
REMARK  132  A    between atoms: _328  and  _329
REMARK  133  A    between atoms: _328  and  _331
REMARK  134  A    between atoms: _331  and  _332
REMARK  135  A    between atoms: _335  and  _337
REMARK  136  A    between atoms: _337  and  _338
REMARK  137  A    between atoms: _337  and  _340
REMARK  138  A    between atoms: _340  and  _341
REMARK  139  A    between atoms: _344  and  _346
REMARK  140  A    between atoms: _346  and  _347
REMARK  141  A    between atoms: _349  and  _351
REMARK  142  A    between atoms: _351  and  _352
REMARK  143  A    between atoms: _355  and  _357
REMARK  144  A    between atoms: _357  and  _358
REMARK  145  A    between atoms: _357  and  _360
REMARK  146  A    between atoms: _360  and  _361
REMARK  147  A    between atoms: _364  and  _366
REMARK  148  A    between atoms: _366  and  _367
REMARK  149  A    between atoms: _366  and  _369
REMARK  150  A    between atoms: _369  and  _370
REMARK  151  A    between atoms: _373  and  _375
REMARK  152  A    between atoms: _375  and  _376
REMARK  153  A    between atoms: _375  and  _378
REMARK  154  A    between atoms: _378  and  _379
REMARK  155  A    between atoms: _382  and  _384
REMARK  156  A    between atoms: _384  and  _385
REMARK  157  A    between atoms: _384  and  _387
REMARK  158  A    between atoms: _390  and  _392
REMARK  159  A    between atoms: _392  and  _393
REMARK  160  A    between atoms: _392  and  _395
REMARK  161  A    between atoms: _395  and  _396
REMARK  162  A    between atoms: _396  and  _397
REMARK  163  A    between atoms: _397  and  _398
REMARK  164  A    between atoms: _398  and  _399
REMARK  165  A    between atoms: _403  and  _405
REMARK  166  A    between atoms: _405  and  _406
REMARK  167  A    between atoms: _405  and  _408
REMARK  168  A    between atoms: _408  and  _409
REMARK  169  A    between atoms: _409  and  _410
REMARK  170  A    between atoms: _412  and  _414
REMARK  171  A    between atoms: _414  and  _415
REMARK  172  A    between atoms: _414  and  _417
REMARK  173  A    between atoms: _417  and  _418
REMARK  174  A    between atoms: _421  and  _423
REMARK  175  A    between atoms: _423  and  _424
REMARK  176  A    between atoms: _426  and  _428
REMARK  177  A    between atoms: _428  and  _429
REMARK  178  A    between atoms: _431  and  _433
REMARK  179  A    between atoms: _433  and  _434
REMARK  180  A    between atoms: _433  and  _436
REMARK  181  A    between atoms: _436  and  _437
REMARK  182  A    between atoms: _440  and  _442
REMARK  183  A    between atoms: _442  and  _443
REMARK  184  A    between atoms: _445  and  _447
REMARK  185  A    between atoms: _447  and  _448
REMARK  186  A    between atoms: _450  and  _452
REMARK  187  A    between atoms: _452  and  _453
REMARK  188  A    between atoms: _452  and  _455
REMARK  189  A    between atoms: _455  and  _456
REMARK  190  A    between atoms: _462  and  _464
REMARK  191  A    between atoms: _464  and  _465
REMARK  192  A    between atoms: _464  and  _467
REMARK  193  A    between atoms: _467  and  _468
REMARK  194  A    between atoms: _471  and  _473
REMARK  195  A    between atoms: _473  and  _474
REMARK  196  A    between atoms: _473  and  _476
REMARK  197  A    between atoms: _476  and  _477
REMARK  198  A    between atoms: _480  and  _482
REMARK  199  A    between atoms: _482  and  _483
REMARK  200  A    between atoms: _482  and  _485
REMARK  201  A    between atoms: _485  and  _486
REMARK  202  A    between atoms: _490  and  _491
REMARK  203  A    between atoms: _496  and  _498
REMARK  204  A    between atoms: _498  and  _499
REMARK  205  A    between atoms: _498  and  _501
REMARK  206  A    between atoms: _504  and  _506
REMARK  207  A    between atoms: _506  and  _507
REMARK  208  A    between atoms: _506  and  _509
REMARK  209  A    between atoms: _509  and  _510
REMARK  210  A    between atoms: _515  and  _517
REMARK  211  A    between atoms: _517  and  _518
REMARK  212  A    between atoms: _517  and  _520
REMARK  213  A    between atoms: _520  and  _521
REMARK  214  A    between atoms: _524  and  _526
REMARK  215  A    between atoms: _526  and  _527
REMARK  216  A    between atoms: _529  and  _531
REMARK  217  A    between atoms: _531  and  _532
REMARK  218  A    between atoms: _531  and  _534
REMARK  219  A    between atoms: _534  and  _535
REMARK  220  A    between atoms: _535  and  _536
REMARK  221  A    between atoms: _536  and  _537
REMARK  222  A    between atoms: _546  and  _548
REMARK  223  A    between atoms: _548  and  _549
REMARK  224  A    between atoms: _548  and  _551
REMARK  225  A    between atoms: _551  and  _552
REMARK                            x       y       z     vdW  Elec       q    Type
REMARK                         _______ _______ _______ _____ _____    ______ ____
ROOT
ATOM      1  O   HOH     1      25.411  28.550  15.265  0.00  0.00    +0.000 OA
ENDROOT
TORSDOF 0
REMARK  Name = ../refined-set-2016/4dfg/4dfg_pocket.pdb
REMARK  225 active torsions:
REMARK  status: ('A' for Active; 'I' for Inactive)
REMARK    1  A    between atoms: _1  and  _3
REMARK    2  A    between atoms: _3  and  _4
REMARK    3  A    between atoms: _3  and  _6
REMARK    4  A    between atoms: _6  and  _7
REMARK    5  A    between atoms: _7  and  _8
REMARK    6  A    between atoms: _8  and  _9
REMARK    7  A    between atoms: _18  and  _20
REMARK    8  A    between atoms: _20  and  _21
REMARK    9  A    between atoms: _20  and  _23
REMARK   10  A    between atoms: _23  and  _24
REMARK   11  A    between atoms: _27  and  _29
REMARK   12  A    between atoms: _29  and  _30
REMARK   13  A    between atoms: _29  and  _32
REMARK   14  A    between atoms: _32  and  _33
REMARK   15  A    between atoms: _36  and  _38
REMARK   16  A    between atoms: _38  and  _39
REMARK   17  A    between atoms: _38  and  _41
REMARK   18  A    between atoms: _41  and  _42
REMARK   19  A    between atoms: _45  and  _47
REMARK   20  A    between atoms: _47  and  _48
REMARK   21  A    between atoms: _47  and  _50
REMARK   22  A    between atoms: _50  and  _51
REMARK   23  A    between atoms: _54  and  _56
REMARK   24  A    between atoms: _56  and  _57
REMARK   25  A    between atoms: _59  and  _61
REMARK   26  A    between atoms: _61  and  _62
REMARK   27  A    between atoms: _65  and  _67
REMARK   28  A    between atoms: _67  and  _68
REMARK   29  A    between atoms: _67  and  _70
REMARK   30  A    between atoms: _70  and  _71
REMARK   31  A    between atoms: _74  and  _76
REMARK   32  A    between atoms: _76  and  _77
REMARK   33  A    between atoms: _76  and  _79
REMARK   34  A    between atoms: _79  and  _80
REMARK   35  A    between atoms: _83  and  _85
REMARK   36  A    between atoms: _85  and  _86
REMARK   37  A    between atoms: _85  and  _88
REMARK   38  A    between atoms: _88  and  _89
REMARK   39  A    between atoms: _92  and  _94
REMARK   40  A    between atoms: _94  and  _95
REMARK   41  A    between atoms: _94  and  _97
REMARK   42  A    between atoms: _100  and  _102
REMARK   43  A    between atoms: _102  and  _103
REMARK   44  A    between atoms: _102  and  _105
REMARK   45  A    between atoms: _105  and  _106
REMARK   46  A    between atoms: _106  and  _107
REMARK   47  A    between atoms: _107  and  _108
REMARK   48  A    between atoms: _108  and  _109
REMARK   49  A    between atoms: _113  and  _115
REMARK   50  A    between atoms: _115  and  _116
REMARK   51  A    between atoms: _115  and  _118
REMARK   52  A    between atoms: _118  and  _119
REMARK   53  A    between atoms: _119  and  _120
REMARK   54  A    between atoms: _122  and  _124
REMARK   55  A    between atoms: _124  and  _125
REMARK   56  A    between atoms: _124  and  _127
REMARK   57  A    between atoms: _127  and  _128
REMARK   58  A    between atoms: _131  and  _133
REMARK   59  A    between atoms: _133  and  _134
REMARK   60  A    between atoms: _136  and  _138
REMARK   61  A    between atoms: _138  and  _139
REMARK   62  A    between atoms: _141  and  _143
REMARK   63  A    between atoms: _143  and  _144
REMARK   64  A    between atoms: _143  and  _146
REMARK   65  A    between atoms: _146  and  _147
REMARK   66  A    between atoms: _150  and  _152
REMARK   67  A    between atoms: _152  and  _153
REMARK   68  A    between atoms: _155  and  _157
REMARK   69  A    between atoms: _157  and  _158
REMARK   70  A    between atoms: _160  and  _162
REMARK   71  A    between atoms: _162  and  _163
REMARK   72  A    between atoms: _162  and  _165
REMARK   73  A    between atoms: _165  and  _166
REMARK   74  A    between atoms: _172  and  _174
REMARK   75  A    between atoms: _174  and  _175
REMARK   76  A    between atoms: _174  and  _177
REMARK   77  A    between atoms: _177  and  _178
REMARK   78  A    between atoms: _181  and  _183
REMARK   79  A    between atoms: _183  and  _184
REMARK   80  A    between atoms: _183  and  _186
REMARK   81  A    between atoms: _189  and  _191
REMARK   82  A    between atoms: _191  and  _192
REMARK   83  A    between atoms: _191  and  _194
REMARK   84  A    between atoms: _194  and  _195
REMARK   85  A    between atoms: _199  and  _200
REMARK   86  A    between atoms: _205  and  _207
REMARK   87  A    between atoms: _207  and  _208
REMARK   88  A    between atoms: _207  and  _210
REMARK   89  A    between atoms: _210  and  _211
REMARK   90  A    between atoms: _215  and  _216
REMARK   91  A    between atoms: _221  and  _223
REMARK   92  A    between atoms: _223  and  _224
REMARK   93  A    between atoms: _223  and  _226
REMARK   94  A    between atoms: _229  and  _231
REMARK   95  A    between atoms: _231  and  _232
REMARK   96  A    between atoms: _231  and  _234
REMARK   97  A    between atoms: _234  and  _235
REMARK   98  A    between atoms: _240  and  _242
REMARK   99  A    between atoms: _242  and  _243
REMARK  100  A    between atoms: _242  and  _245
REMARK  101  A    between atoms: _245  and  _246
REMARK  102  A    between atoms: _249  and  _251
REMARK  103  A    between atoms: _251  and  _252
REMARK  104  A    between atoms: _251  and  _254
REMARK  105  A    between atoms: _254  and  _255
REMARK  106  A    between atoms: _258  and  _260
REMARK  107  A    between atoms: _260  and  _261
REMARK  108  A    between atoms: _263  and  _265
REMARK  109  A    between atoms: _265  and  _266
REMARK  110  A    between atoms: _265  and  _268
REMARK  111  A    between atoms: _269  and  _270
REMARK  112  A    between atoms: _270  and  _271
REMARK  113  A    between atoms: _280  and  _282
REMARK  114  A    between atoms: _282  and  _283
REMARK  115  A    between atoms: _282  and  _285
REMARK  116  A    between atoms: _285  and  _286
REMARK  117  A    between atoms: _291  and  _293
REMARK  118  A    between atoms: _293  and  _294
REMARK  119  A    between atoms: _293  and  _296
REMARK  120  A    between atoms: _296  and  _297
REMARK  121  A    between atoms: _297  and  _298
REMARK  122  A    between atoms: _298  and  _299
REMARK  123  A    between atoms: _308  and  _310
REMARK  124  A    between atoms: _310  and  _311
REMARK  125  A    between atoms: _310  and  _313
REMARK  126  A    between atoms: _313  and  _314
REMARK  127  A    between atoms: _317  and  _319
REMARK  128  A    between atoms: _319  and  _320
REMARK  129  A    between atoms: _319  and  _322
REMARK  130  A    between atoms: _322  and  _323
REMARK  131  A    between atoms: _326  and  _328
REMARK  132  A    between atoms: _328  and  _329
REMARK  133  A    between atoms: _328  and  _331
REMARK  134  A    between atoms: _331  and  _332
REMARK  135  A    between atoms: _335  and  _337
REMARK  136  A    between atoms: _337  and  _338
REMARK  137  A    between atoms: _337  and  _340
REMARK  138  A    between atoms: _340  and  _341
REMARK  139  A    between atoms: _344  and  _346
REMARK  140  A    between atoms: _346  and  _347
REMARK  141  A    between atoms: _349  and  _351
REMARK  142  A    between atoms: _351  and  _352
REMARK  143  A    between atoms: _355  and  _357
REMARK  144  A    between atoms: _357  and  _358
REMARK  145  A    between atoms: _357  and  _360
REMARK  146  A    between atoms: _360  and  _361
REMARK  147  A    between atoms: _364  and  _366
REMARK  148  A    between atoms: _366  and  _367
REMARK  149  A    between atoms: _366  and  _369
REMARK  150  A    between atoms: _369  and  _370
REMARK  151  A    between atoms: _373  and  _375
REMARK  152  A    between atoms: _375  and  _376
REMARK  153  A    between atoms: _375  and  _378
REMARK  154  A    between atoms: _378  and  _379
REMARK  155  A    between atoms: _382  and  _384
REMARK  156  A    between atoms: _384  and  _385
REMARK  157  A    between atoms: _384  and  _387
REMARK  158  A    between atoms: _390  and  _392
REMARK  159  A    between atoms: _392  and  _393
REMARK  160  A    between atoms: _392  and  _395
REMARK  161  A    between atoms: _395  and  _396
REMARK  162  A    between atoms: _396  and  _397
REMARK  163  A    between atoms: _397  and  _398
REMARK  164  A    between atoms: _398  and  _399
REMARK  165  A    between atoms: _403  and  _405
REMARK  166  A    between atoms: _405  and  _406
REMARK  167  A    between atoms: _405  and  _408
REMARK  168  A    between atoms: _408  and  _409
REMARK  169  A    between atoms: _409  and  _410
REMARK  170  A    between atoms: _412  and  _414
REMARK  171  A    between atoms: _414  and  _415
REMARK  172  A    between atoms: _414  and  _417
REMARK  173  A    between atoms: _417  and  _418
REMARK  174  A    between atoms: _421  and  _423
REMARK  175  A    between atoms: _423  and  _424
REMARK  176  A    between atoms: _426  and  _428
REMARK  177  A    between atoms: _428  and  _429
REMARK  178  A    between atoms: _431  and  _433
REMARK  179  A    between atoms: _433  and  _434
REMARK  180  A    between atoms: _433  and  _436
REMARK  181  A    between atoms: _436  and  _437
REMARK  182  A    between atoms: _440  and  _442
REMARK  183  A    between atoms: _442  and  _443
REMARK  184  A    between atoms: _445  and  _447
REMARK  185  A    between atoms: _447  and  _448
REMARK  186  A    between atoms: _450  and  _452
REMARK  187  A    between atoms: _452  and  _453
REMARK  188  A    between atoms: _452  and  _455
REMARK  189  A    between atoms: _455  and  _456
REMARK  190  A    between atoms: _462  and  _464
REMARK  191  A    between atoms: _464  and  _465
REMARK  192  A    between atoms: _464  and  _467
REMARK  193  A    between atoms: _467  and  _468
REMARK  194  A    between atoms: _471  and  _473
REMARK  195  A    between atoms: _473  and  _474
REMARK  196  A    between atoms: _473  and  _476
REMARK  197  A    between atoms: _476  and  _477
REMARK  198  A    between atoms: _480  and  _482
REMARK  199  A    between atoms: _482  and  _483
REMARK  200  A    between atoms: _482  and  _485
REMARK  201  A    between atoms: _485  and  _486
REMARK  202  A    between atoms: _490  and  _491
REMARK  203  A    between atoms: _496  and  _498
REMARK  204  A    between atoms: _498  and  _499
REMARK  205  A    between atoms: _498  and  _501
REMARK  206  A    between atoms: _504  and  _506
REMARK  207  A    between atoms: _506  and  _507
REMARK  208  A    between atoms: _506  and  _509
REMARK  209  A    between atoms: _509  and  _510
REMARK  210  A    between atoms: _515  and  _517
REMARK  211  A    between atoms: _517  and  _518
REMARK  212  A    between atoms: _517  and  _520
REMARK  213  A    between atoms: _520  and  _521
REMARK  214  A    between atoms: _524  and  _526
REMARK  215  A    between atoms: _526  and  _527
REMARK  216  A    between atoms: _529  and  _531
REMARK  217  A    between atoms: _531  and  _532
REMARK  218  A    between atoms: _531  and  _534
REMARK  219  A    between atoms: _534  and  _535
REMARK  220  A    between atoms: _535  and  _536
REMARK  221  A    between atoms: _536  and  _537
REMARK  222  A    between atoms: _546  and  _548
REMARK  223  A    between atoms: _548  and  _549
REMARK  224  A    between atoms: _548  and  _551
REMARK  225  A    between atoms: _551  and  _552
REMARK                            x       y       z     vdW  Elec       q    Type
REMARK                         _______ _______ _______ _____ _____    ______ ____
ROOT
ATOM      1  O   HOH     1      22.952  34.317  12.248  0.00  0.00    +0.000 OA
ENDROOT
TORSDOF 0
REMARK  Name = ../refined-set-2016/4dfg/4dfg_pocket.pdb
REMARK  225 active torsions:
REMARK  status: ('A' for Active; 'I' for Inactive)
REMARK    1  A    between atoms: _1  and  _3
REMARK    2  A    between atoms: _3  and  _4
REMARK    3  A    between atoms: _3  and  _6
REMARK    4  A    between atoms: _6  and  _7
REMARK    5  A    between atoms: _7  and  _8
REMARK    6  A    between atoms: _8  and  _9
REMARK    7  A    between atoms: _18  and  _20
REMARK    8  A    between atoms: _20  and  _21
REMARK    9  A    between atoms: _20  and  _23
REMARK   10  A    between atoms: _23  and  _24
REMARK   11  A    between atoms: _27  and  _29
REMARK   12  A    between atoms: _29  and  _30
REMARK   13  A    between atoms: _29  and  _32
REMARK   14  A    between atoms: _32  and  _33
REMARK   15  A    between atoms: _36  and  _38
REMARK   16  A    between atoms: _38  and  _39
REMARK   17  A    between atoms: _38  and  _41
REMARK   18  A    between atoms: _41  and  _42
REMARK   19  A    between atoms: _45  and  _47
REMARK   20  A    between atoms: _47  and  _48
REMARK   21  A    between atoms: _47  and  _50
REMARK   22  A    between atoms: _50  and  _51
REMARK   23  A    between atoms: _54  and  _56
REMARK   24  A    between atoms: _56  and  _57
REMARK   25  A    between atoms: _59  and  _61
REMARK   26  A    between atoms: _61  and  _62
REMARK   27  A    between atoms: _65  and  _67
REMARK   28  A    between atoms: _67  and  _68
REMARK   29  A    between atoms: _67  and  _70
REMARK   30  A    between atoms: _70  and  _71
REMARK   31  A    between atoms: _74  and  _76
REMARK   32  A    between atoms: _76  and  _77
REMARK   33  A    between atoms: _76  and  _79
REMARK   34  A    between atoms: _79  and  _80
REMARK   35  A    between atoms: _83  and  _85
REMARK   36  A    between atoms: _85  and  _86
REMARK   37  A    between atoms: _85  and  _88
REMARK   38  A    between atoms: _88  and  _89
REMARK   39  A    between atoms: _92  and  _94
REMARK   40  A    between atoms: _94  and  _95
REMARK   41  A    between atoms: _94  and  _97
REMARK   42  A    between atoms: _100  and  _102
REMARK   43  A    between atoms: _102  and  _103
REMARK   44  A    between atoms: _102  and  _105
REMARK   45  A    between atoms: _105  and  _106
REMARK   46  A    between atoms: _106  and  _107
REMARK   47  A    between atoms: _107  and  _108
REMARK   48  A    between atoms: _108  and  _109
REMARK   49  A    between atoms: _113  and  _115
REMARK   50  A    between atoms: _115  and  _116
REMARK   51  A    between atoms: _115  and  _118
REMARK   52  A    between atoms: _118  and  _119
REMARK   53  A    between atoms: _119  and  _120
REMARK   54  A    between atoms: _122  and  _124
REMARK   55  A    between atoms: _124  and  _125
REMARK   56  A    between atoms: _124  and  _127
REMARK   57  A    between atoms: _127  and  _128
REMARK   58  A    between atoms: _131  and  _133
REMARK   59  A    between atoms: _133  and  _134
REMARK   60  A    between atoms: _136  and  _138
REMARK   61  A    between atoms: _138  and  _139
REMARK   62  A    between atoms: _141  and  _143
REMARK   63  A    between atoms: _143  and  _144
REMARK   64  A    between atoms: _143  and  _146
REMARK   65  A    between atoms: _146  and  _147
REMARK   66  A    between atoms: _150  and  _152
REMARK   67  A    between atoms: _152  and  _153
REMARK   68  A    between atoms: _155  and  _157
REMARK   69  A    between atoms: _157  and  _158
REMARK   70  A    between atoms: _160  and  _162
REMARK   71  A    between atoms: _162  and  _163
REMARK   72  A    between atoms: _162  and  _165
REMARK   73  A    between atoms: _165  and  _166
REMARK   74  A    between atoms: _172  and  _174
REMARK   75  A    between atoms: _174  and  _175
REMARK   76  A    between atoms: _174  and  _177
REMARK   77  A    between atoms: _177  and  _178
REMARK   78  A    between atoms: _181  and  _183
REMARK   79  A    between atoms: _183  and  _184
REMARK   80  A    between atoms: _183  and  _186
REMARK   81  A    between atoms: _189  and  _191
REMARK   82  A    between atoms: _191  and  _192
REMARK   83  A    between atoms: _191  and  _194
REMARK   84  A    between atoms: _194  and  _195
REMARK   85  A    between atoms: _199  and  _200
REMARK   86  A    between atoms: _205  and  _207
REMARK   87  A    between atoms: _207  and  _208
REMARK   88  A    between atoms: _207  and  _210
REMARK   89  A    between atoms: _210  and  _211
REMARK   90  A    between atoms: _215  and  _216
REMARK   91  A    between atoms: _221  and  _223
REMARK   92  A    between atoms: _223  and  _224
REMARK   93  A    between atoms: _223  and  _226
REMARK   94  A    between atoms: _229  and  _231
REMARK   95  A    between atoms: _231  and  _232
REMARK   96  A    between atoms: _231  and  _234
REMARK   97  A    between atoms: _234  and  _235
REMARK   98  A    between atoms: _240  and  _242
REMARK   99  A    between atoms: _242  and  _243
REMARK  100  A    between atoms: _242  and  _245
REMARK  101  A    between atoms: _245  and  _246
REMARK  102  A    between atoms: _249  and  _251
REMARK  103  A    between atoms: _251  and  _252
REMARK  104  A    between atoms: _251  and  _254
REMARK  105  A    between atoms: _254  and  _255
REMARK  106  A    between atoms: _258  and  _260
REMARK  107  A    between atoms: _260  and  _261
REMARK  108  A    between atoms: _263  and  _265
REMARK  109  A    between atoms: _265  and  _266
REMARK  110  A    between atoms: _265  and  _268
REMARK  111  A    between atoms: _269  and  _270
REMARK  112  A    between atoms: _270  and  _271
REMARK  113  A    between atoms: _280  and  _282
REMARK  114  A    between atoms: _282  and  _283
REMARK  115  A    between atoms: _282  and  _285
REMARK  116  A    between atoms: _285  and  _286
REMARK  117  A    between atoms: _291  and  _293
REMARK  118  A    between atoms: _293  and  _294
REMARK  119  A    between atoms: _293  and  _296
REMARK  120  A    between atoms: _296  and  _297
REMARK  121  A    between atoms: _297  and  _298
REMARK  122  A    between atoms: _298  and  _299
REMARK  123  A    between atoms: _308  and  _310
REMARK  124  A    between atoms: _310  and  _311
REMARK  125  A    between atoms: _310  and  _313
REMARK  126  A    between atoms: _313  and  _314
REMARK  127  A    between atoms: _317  and  _319
REMARK  128  A    between atoms: _319  and  _320
REMARK  129  A    between atoms: _319  and  _322
REMARK  130  A    between atoms: _322  and  _323
REMARK  131  A    between atoms: _326  and  _328
REMARK  132  A    between atoms: _328  and  _329
REMARK  133  A    between atoms: _328  and  _331
REMARK  134  A    between atoms: _331  and  _332
REMARK  135  A    between atoms: _335  and  _337
REMARK  136  A    between atoms: _337  and  _338
REMARK  137  A    between atoms: _337  and  _340
REMARK  138  A    between atoms: _340  and  _341
REMARK  139  A    between atoms: _344  and  _346
REMARK  140  A    between atoms: _346  and  _347
REMARK  141  A    between atoms: _349  and  _351
REMARK  142  A    between atoms: _351  and  _352
REMARK  143  A    between atoms: _355  and  _357
REMARK  144  A    between atoms: _357  and  _358
REMARK  145  A    between atoms: _357  and  _360
REMARK  146  A    between atoms: _360  and  _361
REMARK  147  A    between atoms: _364  and  _366
REMARK  148  A    between atoms: _366  and  _367
REMARK  149  A    between atoms: _366  and  _369
REMARK  150  A    between atoms: _369  and  _370
REMARK  151  A    between atoms: _373  and  _375
REMARK  152  A    between atoms: _375  and  _376
REMARK  153  A    between atoms: _375  and  _378
REMARK  154  A    between atoms: _378  and  _379
REMARK  155  A    between atoms: _382  and  _384
REMARK  156  A    between atoms: _384  and  _385
REMARK  157  A    between atoms: _384  and  _387
REMARK  158  A    between atoms: _390  and  _392
REMARK  159  A    between atoms: _392  and  _393
REMARK  160  A    between atoms: _392  and  _395
REMARK  161  A    between atoms: _395  and  _396
REMARK  162  A    between atoms: _396  and  _397
REMARK  163  A    between atoms: _397  and  _398
REMARK  164  A    between atoms: _398  and  _399
REMARK  165  A    between atoms: _403  and  _405
REMARK  166  A    between atoms: _405  and  _406
REMARK  167  A    between atoms: _405  and  _408
REMARK  168  A    between atoms: _408  and  _409
REMARK  169  A    between atoms: _409  and  _410
REMARK  170  A    between atoms: _412  and  _414
REMARK  171  A    between atoms: _414  and  _415
REMARK  172  A    between atoms: _414  and  _417
REMARK  173  A    between atoms: _417  and  _418
REMARK  174  A    between atoms: _421  and  _423
REMARK  175  A    between atoms: _423  and  _424
REMARK  176  A    between atoms: _426  and  _428
REMARK  177  A    between atoms: _428  and  _429
REMARK  178  A    between atoms: _431  and  _433
REMARK  179  A    between atoms: _433  and  _434
REMARK  180  A    between atoms: _433  and  _436
REMARK  181  A    between atoms: _436  and  _437
REMARK  182  A    between atoms: _440  and  _442
REMARK  183  A    between atoms: _442  and  _443
REMARK  184  A    between atoms: _445  and  _447
REMARK  185  A    between atoms: _447  and  _448
REMARK  186  A    between atoms: _450  and  _452
REMARK  187  A    between atoms: _452  and  _453
REMARK  188  A    between atoms: _452  and  _455
REMARK  189  A    between atoms: _455  and  _456
REMARK  190  A    between atoms: _462  and  _464
REMARK  191  A    between atoms: _464  and  _465
REMARK  192  A    between atoms: _464  and  _467
REMARK  193  A    between atoms: _467  and  _468
REMARK  194  A    between atoms: _471  and  _473
REMARK  195  A    between atoms: _473  and  _474
REMARK  196  A    between atoms: _473  and  _476
REMARK  197  A    between atoms: _476  and  _477
REMARK  198  A    between atoms: _480  and  _482
REMARK  199  A    between atoms: _482  and  _483
REMARK  200  A    between atoms: _482  and  _485
REMARK  201  A    between atoms: _485  and  _486
REMARK  202  A    between atoms: _490  and  _491
REMARK  203  A    between atoms: _496  and  _498
REMARK  204  A    between atoms: _498  and  _499
REMARK  205  A    between atoms: _498  and  _501
REMARK  206  A    between atoms: _504  and  _506
REMARK  207  A    between atoms: _506  and  _507
REMARK  208  A    between atoms: _506  and  _509
REMARK  209  A    between atoms: _509  and  _510
REMARK  210  A    between atoms: _515  and  _517
REMARK  211  A    between atoms: _517  and  _518
REMARK  212  A    between atoms: _517  and  _520
REMARK  213  A    between atoms: _520  and  _521
REMARK  214  A    between atoms: _524  and  _526
REMARK  215  A    between atoms: _526  and  _527
REMARK  216  A    between atoms: _529  and  _531
REMARK  217  A    between atoms: _531  and  _532
REMARK  218  A    between atoms: _531  and  _534
REMARK  219  A    between atoms: _534  and  _535
REMARK  220  A    between atoms: _535  and  _536
REMARK  221  A    between atoms: _536  and  _537
REMARK  222  A    between atoms: _546  and  _548
REMARK  223  A    between atoms: _548  and  _549
REMARK  224  A    between atoms: _548  and  _551
REMARK  225  A    between atoms: _551  and  _552
REMARK                            x       y       z     vdW  Elec       q    Type
REMARK                         _______ _______ _______ _____ _____    ______ ____
ROOT
ATOM      1  O   HOH     1      28.978  26.186  14.590  0.00  0.00    +0.000 OA
ENDROOT
TORSDOF 0
REMARK  Name = ../refined-set-2016/4dfg/4dfg_pocket.pdb
REMARK  225 active torsions:
REMARK  status: ('A' for Active; 'I' for Inactive)
REMARK    1  A    between atoms: _1  and  _3
REMARK    2  A    between atoms: _3  and  _4
REMARK    3  A    between atoms: _3  and  _6
REMARK    4  A    between atoms: _6  and  _7
REMARK    5  A    between atoms: _7  and  _8
REMARK    6  A    between atoms: _8  and  _9
REMARK    7  A    between atoms: _18  and  _20
REMARK    8  A    between atoms: _20  and  _21
REMARK    9  A    between atoms: _20  and  _23
REMARK   10  A    between atoms: _23  and  _24
REMARK   11  A    between atoms: _27  and  _29
REMARK   12  A    between atoms: _29  and  _30
REMARK   13  A    between atoms: _29  and  _32
REMARK   14  A    between atoms: _32  and  _33
REMARK   15  A    between atoms: _36  and  _38
REMARK   16  A    between atoms: _38  and  _39
REMARK   17  A    between atoms: _38  and  _41
REMARK   18  A    between atoms: _41  and  _42
REMARK   19  A    between atoms: _45  and  _47
REMARK   20  A    between atoms: _47  and  _48
REMARK   21  A    between atoms: _47  and  _50
REMARK   22  A    between atoms: _50  and  _51
REMARK   23  A    between atoms: _54  and  _56
REMARK   24  A    between atoms: _56  and  _57
REMARK   25  A    between atoms: _59  and  _61
REMARK   26  A    between atoms: _61  and  _62
REMARK   27  A    between atoms: _65  and  _67
REMARK   28  A    between atoms: _67  and  _68
REMARK   29  A    between atoms: _67  and  _70
REMARK   30  A    between atoms: _70  and  _71
REMARK   31  A    between atoms: _74  and  _76
REMARK   32  A    between atoms: _76  and  _77
REMARK   33  A    between atoms: _76  and  _79
REMARK   34  A    between atoms: _79  and  _80
REMARK   35  A    between atoms: _83  and  _85
REMARK   36  A    between atoms: _85  and  _86
REMARK   37  A    between atoms: _85  and  _88
REMARK   38  A    between atoms: _88  and  _89
REMARK   39  A    between atoms: _92  and  _94
REMARK   40  A    between atoms: _94  and  _95
REMARK   41  A    between atoms: _94  and  _97
REMARK   42  A    between atoms: _100  and  _102
REMARK   43  A    between atoms: _102  and  _103
REMARK   44  A    between atoms: _102  and  _105
REMARK   45  A    between atoms: _105  and  _106
REMARK   46  A    between atoms: _106  and  _107
REMARK   47  A    between atoms: _107  and  _108
REMARK   48  A    between atoms: _108  and  _109
REMARK   49  A    between atoms: _113  and  _115
REMARK   50  A    between atoms: _115  and  _116
REMARK   51  A    between atoms: _115  and  _118
REMARK   52  A    between atoms: _118  and  _119
REMARK   53  A    between atoms: _119  and  _120
REMARK   54  A    between atoms: _122  and  _124
REMARK   55  A    between atoms: _124  and  _125
REMARK   56  A    between atoms: _124  and  _127
REMARK   57  A    between atoms: _127  and  _128
REMARK   58  A    between atoms: _131  and  _133
REMARK   59  A    between atoms: _133  and  _134
REMARK   60  A    between atoms: _136  and  _138
REMARK   61  A    between atoms: _138  and  _139
REMARK   62  A    between atoms: _141  and  _143
REMARK   63  A    between atoms: _143  and  _144
REMARK   64  A    between atoms: _143  and  _146
REMARK   65  A    between atoms: _146  and  _147
REMARK   66  A    between atoms: _150  and  _152
REMARK   67  A    between atoms: _152  and  _153
REMARK   68  A    between atoms: _155  and  _157
REMARK   69  A    between atoms: _157  and  _158
REMARK   70  A    between atoms: _160  and  _162
REMARK   71  A    between atoms: _162  and  _163
REMARK   72  A    between atoms: _162  and  _165
REMARK   73  A    between atoms: _165  and  _166
REMARK   74  A    between atoms: _172  and  _174
REMARK   75  A    between atoms: _174  and  _175
REMARK   76  A    between atoms: _174  and  _177
REMARK   77  A    between atoms: _177  and  _178
REMARK   78  A    between atoms: _181  and  _183
REMARK   79  A    between atoms: _183  and  _184
REMARK   80  A    between atoms: _183  and  _186
REMARK   81  A    between atoms: _189  and  _191
REMARK   82  A    between atoms: _191  and  _192
REMARK   83  A    between atoms: _191  and  _194
REMARK   84  A    between atoms: _194  and  _195
REMARK   85  A    between atoms: _199  and  _200
REMARK   86  A    between atoms: _205  and  _207
REMARK   87  A    between atoms: _207  and  _208
REMARK   88  A    between atoms: _207  and  _210
REMARK   89  A    between atoms: _210  and  _211
REMARK   90  A    between atoms: _215  and  _216
REMARK   91  A    between atoms: _221  and  _223
REMARK   92  A    between atoms: _223  and  _224
REMARK   93  A    between atoms: _223  and  _226
REMARK   94  A    between atoms: _229  and  _231
REMARK   95  A    between atoms: _231  and  _232
REMARK   96  A    between atoms: _231  and  _234
REMARK   97  A    between atoms: _234  and  _235
REMARK   98  A    between atoms: _240  and  _242
REMARK   99  A    between atoms: _242  and  _243
REMARK  100  A    between atoms: _242  and  _245
REMARK  101  A    between atoms: _245  and  _246
REMARK  102  A    between atoms: _249  and  _251
REMARK  103  A    between atoms: _251  and  _252
REMARK  104  A    between atoms: _251  and  _254
REMARK  105  A    between atoms: _254  and  _255
REMARK  106  A    between atoms: _258  and  _260
REMARK  107  A    between atoms: _260  and  _261
REMARK  108  A    between atoms: _263  and  _265
REMARK  109  A    between atoms: _265  and  _266
REMARK  110  A    between atoms: _265  and  _268
REMARK  111  A    between atoms: _269  and  _270
REMARK  112  A    between atoms: _270  and  _271
REMARK  113  A    between atoms: _280  and  _282
REMARK  114  A    between atoms: _282  and  _283
REMARK  115  A    between atoms: _282  and  _285
REMARK  116  A    between atoms: _285  and  _286
REMARK  117  A    between atoms: _291  and  _293
REMARK  118  A    between atoms: _293  and  _294
REMARK  119  A    between atoms: _293  and  _296
REMARK  120  A    between atoms: _296  and  _297
REMARK  121  A    between atoms: _297  and  _298
REMARK  122  A    between atoms: _298  and  _299
REMARK  123  A    between atoms: _308  and  _310
REMARK  124  A    between atoms: _310  and  _311
REMARK  125  A    between atoms: _310  and  _313
REMARK  126  A    between atoms: _313  and  _314
REMARK  127  A    between atoms: _317  and  _319
REMARK  128  A    between atoms: _319  and  _320
REMARK  129  A    between atoms: _319  and  _322
REMARK  130  A    between atoms: _322  and  _323
REMARK  131  A    between atoms: _326  and  _328
REMARK  132  A    between atoms: _328  and  _329
REMARK  133  A    between atoms: _328  and  _331
REMARK  134  A    between atoms: _331  and  _332
REMARK  135  A    between atoms: _335  and  _337
REMARK  136  A    between atoms: _337  and  _338
REMARK  137  A    between atoms: _337  and  _340
REMARK  138  A    between atoms: _340  and  _341
REMARK  139  A    between atoms: _344  and  _346
REMARK  140  A    between atoms: _346  and  _347
REMARK  141  A    between atoms: _349  and  _351
REMARK  142  A    between atoms: _351  and  _352
REMARK  143  A    between atoms: _355  and  _357
REMARK  144  A    between atoms: _357  and  _358
REMARK  145  A    between atoms: _357  and  _360
REMARK  146  A    between atoms: _360  and  _361
REMARK  147  A    between atoms: _364  and  _366
REMARK  148  A    between atoms: _366  and  _367
REMARK  149  A    between atoms: _366  and  _369
REMARK  150  A    between atoms: _369  and  _370
REMARK  151  A    between atoms: _373  and  _375
REMARK  152  A    between atoms: _375  and  _376
REMARK  153  A    between atoms: _375  and  _378
REMARK  154  A    between atoms: _378  and  _379
REMARK  155  A    between atoms: _382  and  _384
REMARK  156  A    between atoms: _384  and  _385
REMARK  157  A    between atoms: _384  and  _387
REMARK  158  A    between atoms: _390  and  _392
REMARK  159  A    between atoms: _392  and  _393
REMARK  160  A    between atoms: _392  and  _395
REMARK  161  A    between atoms: _395  and  _396
REMARK  162  A    between atoms: _396  and  _397
REMARK  163  A    between atoms: _397  and  _398
REMARK  164  A    between atoms: _398  and  _399
REMARK  165  A    between atoms: _403  and  _405
REMARK  166  A    between atoms: _405  and  _406
REMARK  167  A    between atoms: _405  and  _408
REMARK  168  A    between atoms: _408  and  _409
REMARK  169  A    between atoms: _409  and  _410
REMARK  170  A    between atoms: _412  and  _414
REMARK  171  A    between atoms: _414  and  _415
REMARK  172  A    between atoms: _414  and  _417
REMARK  173  A    between atoms: _417  and  _418
REMARK  174  A    between atoms: _421  and  _423
REMARK  175  A    between atoms: _423  and  _424
REMARK  176  A    between atoms: _426  and  _428
REMARK  177  A    between atoms: _428  and  _429
REMARK  178  A    between atoms: _431  and  _433
REMARK  179  A    between atoms: _433  and  _434
REMARK  180  A    between atoms: _433  and  _436
REMARK  181  A    between atoms: _436  and  _437
REMARK  182  A    between atoms: _440  and  _442
REMARK  183  A    between atoms: _442  and  _443
REMARK  184  A    between atoms: _445  and  _447
REMARK  185  A    between atoms: _447  and  _448
REMARK  186  A    between atoms: _450  and  _452
REMARK  187  A    between atoms: _452  and  _453
REMARK  188  A    between atoms: _452  and  _455
REMARK  189  A    between atoms: _455  and  _456
REMARK  190  A    between atoms: _462  and  _464
REMARK  191  A    between atoms: _464  and  _465
REMARK  192  A    between atoms: _464  and  _467
REMARK  193  A    between atoms: _467  and  _468
REMARK  194  A    between atoms: _471  and  _473
REMARK  195  A    between atoms: _473  and  _474
REMARK  196  A    between atoms: _473  and  _476
REMARK  197  A    between atoms: _476  and  _477
REMARK  198  A    between atoms: _480  and  _482
REMARK  199  A    between atoms: _482  and  _483
REMARK  200  A    between atoms: _482  and  _485
REMARK  201  A    between atoms: _485  and  _486
REMARK  202  A    between atoms: _490  and  _491
REMARK  203  A    between atoms: _496  and  _498
REMARK  204  A    between atoms: _498  and  _499
REMARK  205  A    between atoms: _498  and  _501
REMARK  206  A    between atoms: _504  and  _506
REMARK  207  A    between atoms: _506  and  _507
REMARK  208  A    between atoms: _506  and  _509
REMARK  209  A    between atoms: _509  and  _510
REMARK  210  A    between atoms: _515  and  _517
REMARK  211  A    between atoms: _517  and  _518
REMARK  212  A    between atoms: _517  and  _520
REMARK  213  A    between atoms: _520  and  _521
REMARK  214  A    between atoms: _524  and  _526
REMARK  215  A    between atoms: _526  and  _527
REMARK  216  A    between atoms: _529  and  _531
REMARK  217  A    between atoms: _531  and  _532
REMARK  218  A    between atoms: _531  and  _534
REMARK  219  A    between atoms: _534  and  _535
REMARK  220  A    between atoms: _535  and  _536
REMARK  221  A    between atoms: _536  and  _537
REMARK  222  A    between atoms: _546  and  _548
REMARK  223  A    between atoms: _548  and  _549
REMARK  224  A    between atoms: _548  and  _551
REMARK  225  A    between atoms: _551  and  _552
REMARK                            x       y       z     vdW  Elec       q    Type
REMARK                         _______ _______ _______ _____ _____    ______ ____
ROOT
ATOM      1  O   HOH     1      18.286  20.637  16.578  0.00  0.00    +0.000 OA
ENDROOT
TORSDOF 0
REMARK  Name = ../refined-set-2016/4dfg/4dfg_pocket.pdb
REMARK  225 active torsions:
REMARK  status: ('A' for Active; 'I' for Inactive)
REMARK    1  A    between atoms: _1  and  _3
REMARK    2  A    between atoms: _3  and  _4
REMARK    3  A    between atoms: _3  and  _6
REMARK    4  A    between atoms: _6  and  _7
REMARK    5  A    between atoms: _7  and  _8
REMARK    6  A    between atoms: _8  and  _9
REMARK    7  A    between atoms: _18  and  _20
REMARK    8  A    between atoms: _20  and  _21
REMARK    9  A    between atoms: _20  and  _23
REMARK   10  A    between atoms: _23  and  _24
REMARK   11  A    between atoms: _27  and  _29
REMARK   12  A    between atoms: _29  and  _30
REMARK   13  A    between atoms: _29  and  _32
REMARK   14  A    between atoms: _32  and  _33
REMARK   15  A    between atoms: _36  and  _38
REMARK   16  A    between atoms: _38  and  _39
REMARK   17  A    between atoms: _38  and  _41
REMARK   18  A    between atoms: _41  and  _42
REMARK   19  A    between atoms: _45  and  _47
REMARK   20  A    between atoms: _47  and  _48
REMARK   21  A    between atoms: _47  and  _50
REMARK   22  A    between atoms: _50  and  _51
REMARK   23  A    between atoms: _54  and  _56
REMARK   24  A    between atoms: _56  and  _57
REMARK   25  A    between atoms: _59  and  _61
REMARK   26  A    between atoms: _61  and  _62
REMARK   27  A    between atoms: _65  and  _67
REMARK   28  A    between atoms: _67  and  _68
REMARK   29  A    between atoms: _67  and  _70
REMARK   30  A    between atoms: _70  and  _71
REMARK   31  A    between atoms: _74  and  _76
REMARK   32  A    between atoms: _76  and  _77
REMARK   33  A    between atoms: _76  and  _79
REMARK   34  A    between atoms: _79  and  _80
REMARK   35  A    between atoms: _83  and  _85
REMARK   36  A    between atoms: _85  and  _86
REMARK   37  A    between atoms: _85  and  _88
REMARK   38  A    between atoms: _88  and  _89
REMARK   39  A    between atoms: _92  and  _94
REMARK   40  A    between atoms: _94  and  _95
REMARK   41  A    between atoms: _94  and  _97
REMARK   42  A    between atoms: _100  and  _102
REMARK   43  A    between atoms: _102  and  _103
REMARK   44  A    between atoms: _102  and  _105
REMARK   45  A    between atoms: _105  and  _106
REMARK   46  A    between atoms: _106  and  _107
REMARK   47  A    between atoms: _107  and  _108
REMARK   48  A    between atoms: _108  and  _109
REMARK   49  A    between atoms: _113  and  _115
REMARK   50  A    between atoms: _115  and  _116
REMARK   51  A    between atoms: _115  and  _118
REMARK   52  A    between atoms: _118  and  _119
REMARK   53  A    between atoms: _119  and  _120
REMARK   54  A    between atoms: _122  and  _124
REMARK   55  A    between atoms: _124  and  _125
REMARK   56  A    between atoms: _124  and  _127
REMARK   57  A    between atoms: _127  and  _128
REMARK   58  A    between atoms: _131  and  _133
REMARK   59  A    between atoms: _133  and  _134
REMARK   60  A    between atoms: _136  and  _138
REMARK   61  A    between atoms: _138  and  _139
REMARK   62  A    between atoms: _141  and  _143
REMARK   63  A    between atoms: _143  and  _144
REMARK   64  A    between atoms: _143  and  _146
REMARK   65  A    between atoms: _146  and  _147
REMARK   66  A    between atoms: _150  and  _152
REMARK   67  A    between atoms: _152  and  _153
REMARK   68  A    between atoms: _155  and  _157
REMARK   69  A    between atoms: _157  and  _158
REMARK   70  A    between atoms: _160  and  _162
REMARK   71  A    between atoms: _162  and  _163
REMARK   72  A    between atoms: _162  and  _165
REMARK   73  A    between atoms: _165  and  _166
REMARK   74  A    between atoms: _172  and  _174
REMARK   75  A    between atoms: _174  and  _175
REMARK   76  A    between atoms: _174  and  _177
REMARK   77  A    between atoms: _177  and  _178
REMARK   78  A    between atoms: _181  and  _183
REMARK   79  A    between atoms: _183  and  _184
REMARK   80  A    between atoms: _183  and  _186
REMARK   81  A    between atoms: _189  and  _191
REMARK   82  A    between atoms: _191  and  _192
REMARK   83  A    between atoms: _191  and  _194
REMARK   84  A    between atoms: _194  and  _195
REMARK   85  A    between atoms: _199  and  _200
REMARK   86  A    between atoms: _205  and  _207
REMARK   87  A    between atoms: _207  and  _208
REMARK   88  A    between atoms: _207  and  _210
REMARK   89  A    between atoms: _210  and  _211
REMARK   90  A    between atoms: _215  and  _216
REMARK   91  A    between atoms: _221  and  _223
REMARK   92  A    between atoms: _223  and  _224
REMARK   93  A    between atoms: _223  and  _226
REMARK   94  A    between atoms: _229  and  _231
REMARK   95  A    between atoms: _231  and  _232
REMARK   96  A    between atoms: _231  and  _234
REMARK   97  A    between atoms: _234  and  _235
REMARK   98  A    between atoms: _240  and  _242
REMARK   99  A    between atoms: _242  and  _243
REMARK  100  A    between atoms: _242  and  _245
REMARK  101  A    between atoms: _245  and  _246
REMARK  102  A    between atoms: _249  and  _251
REMARK  103  A    between atoms: _251  and  _252
REMARK  104  A    between atoms: _251  and  _254
REMARK  105  A    between atoms: _254  and  _255
REMARK  106  A    between atoms: _258  and  _260
REMARK  107  A    between atoms: _260  and  _261
REMARK  108  A    between atoms: _263  and  _265
REMARK  109  A    between atoms: _265  and  _266
REMARK  110  A    between atoms: _265  and  _268
REMARK  111  A    between atoms: _269  and  _270
REMARK  112  A    between atoms: _270  and  _271
REMARK  113  A    between atoms: _280  and  _282
REMARK  114  A    between atoms: _282  and  _283
REMARK  115  A    between atoms: _282  and  _285
REMARK  116  A    between atoms: _285  and  _286
REMARK  117  A    between atoms: _291  and  _293
REMARK  118  A    between atoms: _293  and  _294
REMARK  119  A    between atoms: _293  and  _296
REMARK  120  A    between atoms: _296  and  _297
REMARK  121  A    between atoms: _297  and  _298
REMARK  122  A    between atoms: _298  and  _299
REMARK  123  A    between atoms: _308  and  _310
REMARK  124  A    between atoms: _310  and  _311
REMARK  125  A    between atoms: _310  and  _313
REMARK  126  A    between atoms: _313  and  _314
REMARK  127  A    between atoms: _317  and  _319
REMARK  128  A    between atoms: _319  and  _320
REMARK  129  A    between atoms: _319  and  _322
REMARK  130  A    between atoms: _322  and  _323
REMARK  131  A    between atoms: _326  and  _328
REMARK  132  A    between atoms: _328  and  _329
REMARK  133  A    between atoms: _328  and  _331
REMARK  134  A    between atoms: _331  and  _332
REMARK  135  A    between atoms: _335  and  _337
REMARK  136  A    between atoms: _337  and  _338
REMARK  137  A    between atoms: _337  and  _340
REMARK  138  A    between atoms: _340  and  _341
REMARK  139  A    between atoms: _344  and  _346
REMARK  140  A    between atoms: _346  and  _347
REMARK  141  A    between atoms: _349  and  _351
REMARK  142  A    between atoms: _351  and  _352
REMARK  143  A    between atoms: _355  and  _357
REMARK  144  A    between atoms: _357  and  _358
REMARK  145  A    between atoms: _357  and  _360
REMARK  146  A    between atoms: _360  and  _361
REMARK  147  A    between atoms: _364  and  _366
REMARK  148  A    between atoms: _366  and  _367
REMARK  149  A    between atoms: _366  and  _369
REMARK  150  A    between atoms: _369  and  _370
REMARK  151  A    between atoms: _373  and  _375
REMARK  152  A    between atoms: _375  and  _376
REMARK  153  A    between atoms: _375  and  _378
REMARK  154  A    between atoms: _378  and  _379
REMARK  155  A    between atoms: _382  and  _384
REMARK  156  A    between atoms: _384  and  _385
REMARK  157  A    between atoms: _384  and  _387
REMARK  158  A    between atoms: _390  and  _392
REMARK  159  A    between atoms: _392  and  _393
REMARK  160  A    between atoms: _392  and  _395
REMARK  161  A    between atoms: _395  and  _396
REMARK  162  A    between atoms: _396  and  _397
REMARK  163  A    between atoms: _397  and  _398
REMARK  164  A    between atoms: _398  and  _399
REMARK  165  A    between atoms: _403  and  _405
REMARK  166  A    between atoms: _405  and  _406
REMARK  167  A    between atoms: _405  and  _408
REMARK  168  A    between atoms: _408  and  _409
REMARK  169  A    between atoms: _409  and  _410
REMARK  170  A    between atoms: _412  and  _414
REMARK  171  A    between atoms: _414  and  _415
REMARK  172  A    between atoms: _414  and  _417
REMARK  173  A    between atoms: _417  and  _418
REMARK  174  A    between atoms: _421  and  _423
REMARK  175  A    between atoms: _423  and  _424
REMARK  176  A    between atoms: _426  and  _428
REMARK  177  A    between atoms: _428  and  _429
REMARK  178  A    between atoms: _431  and  _433
REMARK  179  A    between atoms: _433  and  _434
REMARK  180  A    between atoms: _433  and  _436
REMARK  181  A    between atoms: _436  and  _437
REMARK  182  A    between atoms: _440  and  _442
REMARK  183  A    between atoms: _442  and  _443
REMARK  184  A    between atoms: _445  and  _447
REMARK  185  A    between atoms: _447  and  _448
REMARK  186  A    between atoms: _450  and  _452
REMARK  187  A    between atoms: _452  and  _453
REMARK  188  A    between atoms: _452  and  _455
REMARK  189  A    between atoms: _455  and  _456
REMARK  190  A    between atoms: _462  and  _464
REMARK  191  A    between atoms: _464  and  _465
REMARK  192  A    between atoms: _464  and  _467
REMARK  193  A    between atoms: _467  and  _468
REMARK  194  A    between atoms: _471  and  _473
REMARK  195  A    between atoms: _473  and  _474
REMARK  196  A    between atoms: _473  and  _476
REMARK  197  A    between atoms: _476  and  _477
REMARK  198  A    between atoms: _480  and  _482
REMARK  199  A    between atoms: _482  and  _483
REMARK  200  A    between atoms: _482  and  _485
REMARK  201  A    between atoms: _485  and  _486
REMARK  202  A    between atoms: _490  and  _491
REMARK  203  A    between atoms: _496  and  _498
REMARK  204  A    between atoms: _498  and  _499
REMARK  205  A    between atoms: _498  and  _501
REMARK  206  A    between atoms: _504  and  _506
REMARK  207  A    between atoms: _506  and  _507
REMARK  208  A    between atoms: _506  and  _509
REMARK  209  A    between atoms: _509  and  _510
REMARK  210  A    between atoms: _515  and  _517
REMARK  211  A    between atoms: _517  and  _518
REMARK  212  A    between atoms: _517  and  _520
REMARK  213  A    between atoms: _520  and  _521
REMARK  214  A    between atoms: _524  and  _526
REMARK  215  A    between atoms: _526  and  _527
REMARK  216  A    between atoms: _529  and  _531
REMARK  217  A    between atoms: _531  and  _532
REMARK  218  A    between atoms: _531  and  _534
REMARK  219  A    between atoms: _534  and  _535
REMARK  220  A    between atoms: _535  and  _536
REMARK  221  A    between atoms: _536  and  _537
REMARK  222  A    between atoms: _546  and  _548
REMARK  223  A    between atoms: _548  and  _549
REMARK  224  A    between atoms: _548  and  _551
REMARK  225  A    between atoms: _551  and  _552
REMARK                            x       y       z     vdW  Elec       q    Type
REMARK                         _______ _______ _______ _____ _____    ______ ____
ROOT
ATOM      1  O   HOH     1       8.745  22.071  16.641  0.00  0.00    +0.000 OA
ENDROOT
TORSDOF 0
REMARK  Name = ../refined-set-2016/4dfg/4dfg_pocket.pdb
REMARK  225 active torsions:
REMARK  status: ('A' for Active; 'I' for Inactive)
REMARK    1  A    between atoms: _1  and  _3
REMARK    2  A    between atoms: _3  and  _4
REMARK    3  A    between atoms: _3  and  _6
REMARK    4  A    between atoms: _6  and  _7
REMARK    5  A    between atoms: _7  and  _8
REMARK    6  A    between atoms: _8  and  _9
REMARK    7  A    between atoms: _18  and  _20
REMARK    8  A    between atoms: _20  and  _21
REMARK    9  A    between atoms: _20  and  _23
REMARK   10  A    between atoms: _23  and  _24
REMARK   11  A    between atoms: _27  and  _29
REMARK   12  A    between atoms: _29  and  _30
REMARK   13  A    between atoms: _29  and  _32
REMARK   14  A    between atoms: _32  and  _33
REMARK   15  A    between atoms: _36  and  _38
REMARK   16  A    between atoms: _38  and  _39
REMARK   17  A    between atoms: _38  and  _41
REMARK   18  A    between atoms: _41  and  _42
REMARK   19  A    between atoms: _45  and  _47
REMARK   20  A    between atoms: _47  and  _48
REMARK   21  A    between atoms: _47  and  _50
REMARK   22  A    between atoms: _50  and  _51
REMARK   23  A    between atoms: _54  and  _56
REMARK   24  A    between atoms: _56  and  _57
REMARK   25  A    between atoms: _59  and  _61
REMARK   26  A    between atoms: _61  and  _62
REMARK   27  A    between atoms: _65  and  _67
REMARK   28  A    between atoms: _67  and  _68
REMARK   29  A    between atoms: _67  and  _70
REMARK   30  A    between atoms: _70  and  _71
REMARK   31  A    between atoms: _74  and  _76
REMARK   32  A    between atoms: _76  and  _77
REMARK   33  A    between atoms: _76  and  _79
REMARK   34  A    between atoms: _79  and  _80
REMARK   35  A    between atoms: _83  and  _85
REMARK   36  A    between atoms: _85  and  _86
REMARK   37  A    between atoms: _85  and  _88
REMARK   38  A    between atoms: _88  and  _89
REMARK   39  A    between atoms: _92  and  _94
REMARK   40  A    between atoms: _94  and  _95
REMARK   41  A    between atoms: _94  and  _97
REMARK   42  A    between atoms: _100  and  _102
REMARK   43  A    between atoms: _102  and  _103
REMARK   44  A    between atoms: _102  and  _105
REMARK   45  A    between atoms: _105  and  _106
REMARK   46  A    between atoms: _106  and  _107
REMARK   47  A    between atoms: _107  and  _108
REMARK   48  A    between atoms: _108  and  _109
REMARK   49  A    between atoms: _113  and  _115
REMARK   50  A    between atoms: _115  and  _116
REMARK   51  A    between atoms: _115  and  _118
REMARK   52  A    between atoms: _118  and  _119
REMARK   53  A    between atoms: _119  and  _120
REMARK   54  A    between atoms: _122  and  _124
REMARK   55  A    between atoms: _124  and  _125
REMARK   56  A    between atoms: _124  and  _127
REMARK   57  A    between atoms: _127  and  _128
REMARK   58  A    between atoms: _131  and  _133
REMARK   59  A    between atoms: _133  and  _134
REMARK   60  A    between atoms: _136  and  _138
REMARK   61  A    between atoms: _138  and  _139
REMARK   62  A    between atoms: _141  and  _143
REMARK   63  A    between atoms: _143  and  _144
REMARK   64  A    between atoms: _143  and  _146
REMARK   65  A    between atoms: _146  and  _147
REMARK   66  A    between atoms: _150  and  _152
REMARK   67  A    between atoms: _152  and  _153
REMARK   68  A    between atoms: _155  and  _157
REMARK   69  A    between atoms: _157  and  _158
REMARK   70  A    between atoms: _160  and  _162
REMARK   71  A    between atoms: _162  and  _163
REMARK   72  A    between atoms: _162  and  _165
REMARK   73  A    between atoms: _165  and  _166
REMARK   74  A    between atoms: _172  and  _174
REMARK   75  A    between atoms: _174  and  _175
REMARK   76  A    between atoms: _174  and  _177
REMARK   77  A    between atoms: _177  and  _178
REMARK   78  A    between atoms: _181  and  _183
REMARK   79  A    between atoms: _183  and  _184
REMARK   80  A    between atoms: _183  and  _186
REMARK   81  A    between atoms: _189  and  _191
REMARK   82  A    between atoms: _191  and  _192
REMARK   83  A    between atoms: _191  and  _194
REMARK   84  A    between atoms: _194  and  _195
REMARK   85  A    between atoms: _199  and  _200
REMARK   86  A    between atoms: _205  and  _207
REMARK   87  A    between atoms: _207  and  _208
REMARK   88  A    between atoms: _207  and  _210
REMARK   89  A    between atoms: _210  and  _211
REMARK   90  A    between atoms: _215  and  _216
REMARK   91  A    between atoms: _221  and  _223
REMARK   92  A    between atoms: _223  and  _224
REMARK   93  A    between atoms: _223  and  _226
REMARK   94  A    between atoms: _229  and  _231
REMARK   95  A    between atoms: _231  and  _232
REMARK   96  A    between atoms: _231  and  _234
REMARK   97  A    between atoms: _234  and  _235
REMARK   98  A    between atoms: _240  and  _242
REMARK   99  A    between atoms: _242  and  _243
REMARK  100  A    between atoms: _242  and  _245
REMARK  101  A    between atoms: _245  and  _246
REMARK  102  A    between atoms: _249  and  _251
REMARK  103  A    between atoms: _251  and  _252
REMARK  104  A    between atoms: _251  and  _254
REMARK  105  A    between atoms: _254  and  _255
REMARK  106  A    between atoms: _258  and  _260
REMARK  107  A    between atoms: _260  and  _261
REMARK  108  A    between atoms: _263  and  _265
REMARK  109  A    between atoms: _265  and  _266
REMARK  110  A    between atoms: _265  and  _268
REMARK  111  A    between atoms: _269  and  _270
REMARK  112  A    between atoms: _270  and  _271
REMARK  113  A    between atoms: _280  and  _282
REMARK  114  A    between atoms: _282  and  _283
REMARK  115  A    between atoms: _282  and  _285
REMARK  116  A    between atoms: _285  and  _286
REMARK  117  A    between atoms: _291  and  _293
REMARK  118  A    between atoms: _293  and  _294
REMARK  119  A    between atoms: _293  and  _296
REMARK  120  A    between atoms: _296  and  _297
REMARK  121  A    between atoms: _297  and  _298
REMARK  122  A    between atoms: _298  and  _299
REMARK  123  A    between atoms: _308  and  _310
REMARK  124  A    between atoms: _310  and  _311
REMARK  125  A    between atoms: _310  and  _313
REMARK  126  A    between atoms: _313  and  _314
REMARK  127  A    between atoms: _317  and  _319
REMARK  128  A    between atoms: _319  and  _320
REMARK  129  A    between atoms: _319  and  _322
REMARK  130  A    between atoms: _322  and  _323
REMARK  131  A    between atoms: _326  and  _328
REMARK  132  A    between atoms: _328  and  _329
REMARK  133  A    between atoms: _328  and  _331
REMARK  134  A    between atoms: _331  and  _332
REMARK  135  A    between atoms: _335  and  _337
REMARK  136  A    between atoms: _337  and  _338
REMARK  137  A    between atoms: _337  and  _340
REMARK  138  A    between atoms: _340  and  _341
REMARK  139  A    between atoms: _344  and  _346
REMARK  140  A    between atoms: _346  and  _347
REMARK  141  A    between atoms: _349  and  _351
REMARK  142  A    between atoms: _351  and  _352
REMARK  143  A    between atoms: _355  and  _357
REMARK  144  A    between atoms: _357  and  _358
REMARK  145  A    between atoms: _357  and  _360
REMARK  146  A    between atoms: _360  and  _361
REMARK  147  A    between atoms: _364  and  _366
REMARK  148  A    between atoms: _366  and  _367
REMARK  149  A    between atoms: _366  and  _369
REMARK  150  A    between atoms: _369  and  _370
REMARK  151  A    between atoms: _373  and  _375
REMARK  152  A    between atoms: _375  and  _376
REMARK  153  A    between atoms: _375  and  _378
REMARK  154  A    between atoms: _378  and  _379
REMARK  155  A    between atoms: _382  and  _384
REMARK  156  A    between atoms: _384  and  _385
REMARK  157  A    between atoms: _384  and  _387
REMARK  158  A    between atoms: _390  and  _392
REMARK  159  A    between atoms: _392  and  _393
REMARK  160  A    between atoms: _392  and  _395
REMARK  161  A    between atoms: _395  and  _396
REMARK  162  A    between atoms: _396  and  _397
REMARK  163  A    between atoms: _397  and  _398
REMARK  164  A    between atoms: _398  and  _399
REMARK  165  A    between atoms: _403  and  _405
REMARK  166  A    between atoms: _405  and  _406
REMARK  167  A    between atoms: _405  and  _408
REMARK  168  A    between atoms: _408  and  _409
REMARK  169  A    between atoms: _409  and  _410
REMARK  170  A    between atoms: _412  and  _414
REMARK  171  A    between atoms: _414  and  _415
REMARK  172  A    between atoms: _414  and  _417
REMARK  173  A    between atoms: _417  and  _418
REMARK  174  A    between atoms: _421  and  _423
REMARK  175  A    between atoms: _423  and  _424
REMARK  176  A    between atoms: _426  and  _428
REMARK  177  A    between atoms: _428  and  _429
REMARK  178  A    between atoms: _431  and  _433
REMARK  179  A    between atoms: _433  and  _434
REMARK  180  A    between atoms: _433  and  _436
REMARK  181  A    between atoms: _436  and  _437
REMARK  182  A    between atoms: _440  and  _442
REMARK  183  A    between atoms: _442  and  _443
REMARK  184  A    between atoms: _445  and  _447
REMARK  185  A    between atoms: _447  and  _448
REMARK  186  A    between atoms: _450  and  _452
REMARK  187  A    between atoms: _452  and  _453
REMARK  188  A    between atoms: _452  and  _455
REMARK  189  A    between atoms: _455  and  _456
REMARK  190  A    between atoms: _462  and  _464
REMARK  191  A    between atoms: _464  and  _465
REMARK  192  A    between atoms: _464  and  _467
REMARK  193  A    between atoms: _467  and  _468
REMARK  194  A    between atoms: _471  and  _473
REMARK  195  A    between atoms: _473  and  _474
REMARK  196  A    between atoms: _473  and  _476
REMARK  197  A    between atoms: _476  and  _477
REMARK  198  A    between atoms: _480  and  _482
REMARK  199  A    between atoms: _482  and  _483
REMARK  200  A    between atoms: _482  and  _485
REMARK  201  A    between atoms: _485  and  _486
REMARK  202  A    between atoms: _490  and  _491
REMARK  203  A    between atoms: _496  and  _498
REMARK  204  A    between atoms: _498  and  _499
REMARK  205  A    between atoms: _498  and  _501
REMARK  206  A    between atoms: _504  and  _506
REMARK  207  A    between atoms: _506  and  _507
REMARK  208  A    between atoms: _506  and  _509
REMARK  209  A    between atoms: _509  and  _510
REMARK  210  A    between atoms: _515  and  _517
REMARK  211  A    between atoms: _517  and  _518
REMARK  212  A    between atoms: _517  and  _520
REMARK  213  A    between atoms: _520  and  _521
REMARK  214  A    between atoms: _524  and  _526
REMARK  215  A    between atoms: _526  and  _527
REMARK  216  A    between atoms: _529  and  _531
REMARK  217  A    between atoms: _531  and  _532
REMARK  218  A    between atoms: _531  and  _534
REMARK  219  A    between atoms: _534  and  _535
REMARK  220  A    between atoms: _535  and  _536
REMARK  221  A    between atoms: _536  and  _537
REMARK  222  A    between atoms: _546  and  _548
REMARK  223  A    between atoms: _548  and  _549
REMARK  224  A    between atoms: _548  and  _551
REMARK  225  A    between atoms: _551  and  _552
REMARK                            x       y       z     vdW  Elec       q    Type
REMARK                         _______ _______ _______ _____ _____    ______ ____
ROOT
ATOM      1  O   HOH     1       7.424  23.902  18.238  0.00  0.00    +0.000 OA
ENDROOT
TORSDOF 0
REMARK  Name = ../refined-set-2016/4dfg/4dfg_pocket.pdb
REMARK  225 active torsions:
REMARK  status: ('A' for Active; 'I' for Inactive)
REMARK    1  A    between atoms: _1  and  _3
REMARK    2  A    between atoms: _3  and  _4
REMARK    3  A    between atoms: _3  and  _6
REMARK    4  A    between atoms: _6  and  _7
REMARK    5  A    between atoms: _7  and  _8
REMARK    6  A    between atoms: _8  and  _9
REMARK    7  A    between atoms: _18  and  _20
REMARK    8  A    between atoms: _20  and  _21
REMARK    9  A    between atoms: _20  and  _23
REMARK   10  A    between atoms: _23  and  _24
REMARK   11  A    between atoms: _27  and  _29
REMARK   12  A    between atoms: _29  and  _30
REMARK   13  A    between atoms: _29  and  _32
REMARK   14  A    between atoms: _32  and  _33
REMARK   15  A    between atoms: _36  and  _38
REMARK   16  A    between atoms: _38  and  _39
REMARK   17  A    between atoms: _38  and  _41
REMARK   18  A    between atoms: _41  and  _42
REMARK   19  A    between atoms: _45  and  _47
REMARK   20  A    between atoms: _47  and  _48
REMARK   21  A    between atoms: _47  and  _50
REMARK   22  A    between atoms: _50  and  _51
REMARK   23  A    between atoms: _54  and  _56
REMARK   24  A    between atoms: _56  and  _57
REMARK   25  A    between atoms: _59  and  _61
REMARK   26  A    between atoms: _61  and  _62
REMARK   27  A    between atoms: _65  and  _67
REMARK   28  A    between atoms: _67  and  _68
REMARK   29  A    between atoms: _67  and  _70
REMARK   30  A    between atoms: _70  and  _71
REMARK   31  A    between atoms: _74  and  _76
REMARK   32  A    between atoms: _76  and  _77
REMARK   33  A    between atoms: _76  and  _79
REMARK   34  A    between atoms: _79  and  _80
REMARK   35  A    between atoms: _83  and  _85
REMARK   36  A    between atoms: _85  and  _86
REMARK   37  A    between atoms: _85  and  _88
REMARK   38  A    between atoms: _88  and  _89
REMARK   39  A    between atoms: _92  and  _94
REMARK   40  A    between atoms: _94  and  _95
REMARK   41  A    between atoms: _94  and  _97
REMARK   42  A    between atoms: _100  and  _102
REMARK   43  A    between atoms: _102  and  _103
REMARK   44  A    between atoms: _102  and  _105
REMARK   45  A    between atoms: _105  and  _106
REMARK   46  A    between atoms: _106  and  _107
REMARK   47  A    between atoms: _107  and  _108
REMARK   48  A    between atoms: _108  and  _109
REMARK   49  A    between atoms: _113  and  _115
REMARK   50  A    between atoms: _115  and  _116
REMARK   51  A    between atoms: _115  and  _118
REMARK   52  A    between atoms: _118  and  _119
REMARK   53  A    between atoms: _119  and  _120
REMARK   54  A    between atoms: _122  and  _124
REMARK   55  A    between atoms: _124  and  _125
REMARK   56  A    between atoms: _124  and  _127
REMARK   57  A    between atoms: _127  and  _128
REMARK   58  A    between atoms: _131  and  _133
REMARK   59  A    between atoms: _133  and  _134
REMARK   60  A    between atoms: _136  and  _138
REMARK   61  A    between atoms: _138  and  _139
REMARK   62  A    between atoms: _141  and  _143
REMARK   63  A    between atoms: _143  and  _144
REMARK   64  A    between atoms: _143  and  _146
REMARK   65  A    between atoms: _146  and  _147
REMARK   66  A    between atoms: _150  and  _152
REMARK   67  A    between atoms: _152  and  _153
REMARK   68  A    between atoms: _155  and  _157
REMARK   69  A    between atoms: _157  and  _158
REMARK   70  A    between atoms: _160  and  _162
REMARK   71  A    between atoms: _162  and  _163
REMARK   72  A    between atoms: _162  and  _165
REMARK   73  A    between atoms: _165  and  _166
REMARK   74  A    between atoms: _172  and  _174
REMARK   75  A    between atoms: _174  and  _175
REMARK   76  A    between atoms: _174  and  _177
REMARK   77  A    between atoms: _177  and  _178
REMARK   78  A    between atoms: _181  and  _183
REMARK   79  A    between atoms: _183  and  _184
REMARK   80  A    between atoms: _183  and  _186
REMARK   81  A    between atoms: _189  and  _191
REMARK   82  A    between atoms: _191  and  _192
REMARK   83  A    between atoms: _191  and  _194
REMARK   84  A    between atoms: _194  and  _195
REMARK   85  A    between atoms: _199  and  _200
REMARK   86  A    between atoms: _205  and  _207
REMARK   87  A    between atoms: _207  and  _208
REMARK   88  A    between atoms: _207  and  _210
REMARK   89  A    between atoms: _210  and  _211
REMARK   90  A    between atoms: _215  and  _216
REMARK   91  A    between atoms: _221  and  _223
REMARK   92  A    between atoms: _223  and  _224
REMARK   93  A    between atoms: _223  and  _226
REMARK   94  A    between atoms: _229  and  _231
REMARK   95  A    between atoms: _231  and  _232
REMARK   96  A    between atoms: _231  and  _234
REMARK   97  A    between atoms: _234  and  _235
REMARK   98  A    between atoms: _240  and  _242
REMARK   99  A    between atoms: _242  and  _243
REMARK  100  A    between atoms: _242  and  _245
REMARK  101  A    between atoms: _245  and  _246
REMARK  102  A    between atoms: _249  and  _251
REMARK  103  A    between atoms: _251  and  _252
REMARK  104  A    between atoms: _251  and  _254
REMARK  105  A    between atoms: _254  and  _255
REMARK  106  A    between atoms: _258  and  _260
REMARK  107  A    between atoms: _260  and  _261
REMARK  108  A    between atoms: _263  and  _265
REMARK  109  A    between atoms: _265  and  _266
REMARK  110  A    between atoms: _265  and  _268
REMARK  111  A    between atoms: _269  and  _270
REMARK  112  A    between atoms: _270  and  _271
REMARK  113  A    between atoms: _280  and  _282
REMARK  114  A    between atoms: _282  and  _283
REMARK  115  A    between atoms: _282  and  _285
REMARK  116  A    between atoms: _285  and  _286
REMARK  117  A    between atoms: _291  and  _293
REMARK  118  A    between atoms: _293  and  _294
REMARK  119  A    between atoms: _293  and  _296
REMARK  120  A    between atoms: _296  and  _297
REMARK  121  A    between atoms: _297  and  _298
REMARK  122  A    between atoms: _298  and  _299
REMARK  123  A    between atoms: _308  and  _310
REMARK  124  A    between atoms: _310  and  _311
REMARK  125  A    between atoms: _310  and  _313
REMARK  126  A    between atoms: _313  and  _314
REMARK  127  A    between atoms: _317  and  _319
REMARK  128  A    between atoms: _319  and  _320
REMARK  129  A    between atoms: _319  and  _322
REMARK  130  A    between atoms: _322  and  _323
REMARK  131  A    between atoms: _326  and  _328
REMARK  132  A    between atoms: _328  and  _329
REMARK  133  A    between atoms: _328  and  _331
REMARK  134  A    between atoms: _331  and  _332
REMARK  135  A    between atoms: _335  and  _337
REMARK  136  A    between atoms: _337  and  _338
REMARK  137  A    between atoms: _337  and  _340
REMARK  138  A    between atoms: _340  and  _341
REMARK  139  A    between atoms: _344  and  _346
REMARK  140  A    between atoms: _346  and  _347
REMARK  141  A    between atoms: _349  and  _351
REMARK  142  A    between atoms: _351  and  _352
REMARK  143  A    between atoms: _355  and  _357
REMARK  144  A    between atoms: _357  and  _358
REMARK  145  A    between atoms: _357  and  _360
REMARK  146  A    between atoms: _360  and  _361
REMARK  147  A    between atoms: _364  and  _366
REMARK  148  A    between atoms: _366  and  _367
REMARK  149  A    between atoms: _366  and  _369
REMARK  150  A    between atoms: _369  and  _370
REMARK  151  A    between atoms: _373  and  _375
REMARK  152  A    between atoms: _375  and  _376
REMARK  153  A    between atoms: _375  and  _378
REMARK  154  A    between atoms: _378  and  _379
REMARK  155  A    between atoms: _382  and  _384
REMARK  156  A    between atoms: _384  and  _385
REMARK  157  A    between atoms: _384  and  _387
REMARK  158  A    between atoms: _390  and  _392
REMARK  159  A    between atoms: _392  and  _393
REMARK  160  A    between atoms: _392  and  _395
REMARK  161  A    between atoms: _395  and  _396
REMARK  162  A    between atoms: _396  and  _397
REMARK  163  A    between atoms: _397  and  _398
REMARK  164  A    between atoms: _398  and  _399
REMARK  165  A    between atoms: _403  and  _405
REMARK  166  A    between atoms: _405  and  _406
REMARK  167  A    between atoms: _405  and  _408
REMARK  168  A    between atoms: _408  and  _409
REMARK  169  A    between atoms: _409  and  _410
REMARK  170  A    between atoms: _412  and  _414
REMARK  171  A    between atoms: _414  and  _415
REMARK  172  A    between atoms: _414  and  _417
REMARK  173  A    between atoms: _417  and  _418
REMARK  174  A    between atoms: _421  and  _423
REMARK  175  A    between atoms: _423  and  _424
REMARK  176  A    between atoms: _426  and  _428
REMARK  177  A    between atoms: _428  and  _429
REMARK  178  A    between atoms: _431  and  _433
REMARK  179  A    between atoms: _433  and  _434
REMARK  180  A    between atoms: _433  and  _436
REMARK  181  A    between atoms: _436  and  _437
REMARK  182  A    between atoms: _440  and  _442
REMARK  183  A    between atoms: _442  and  _443
REMARK  184  A    between atoms: _445  and  _447
REMARK  185  A    between atoms: _447  and  _448
REMARK  186  A    between atoms: _450  and  _452
REMARK  187  A    between atoms: _452  and  _453
REMARK  188  A    between atoms: _452  and  _455
REMARK  189  A    between atoms: _455  and  _456
REMARK  190  A    between atoms: _462  and  _464
REMARK  191  A    between atoms: _464  and  _465
REMARK  192  A    between atoms: _464  and  _467
REMARK  193  A    between atoms: _467  and  _468
REMARK  194  A    between atoms: _471  and  _473
REMARK  195  A    between atoms: _473  and  _474
REMARK  196  A    between atoms: _473  and  _476
REMARK  197  A    between atoms: _476  and  _477
REMARK  198  A    between atoms: _480  and  _482
REMARK  199  A    between atoms: _482  and  _483
REMARK  200  A    between atoms: _482  and  _485
REMARK  201  A    between atoms: _485  and  _486
REMARK  202  A    between atoms: _490  and  _491
REMARK  203  A    between atoms: _496  and  _498
REMARK  204  A    between atoms: _498  and  _499
REMARK  205  A    between atoms: _498  and  _501
REMARK  206  A    between atoms: _504  and  _506
REMARK  207  A    between atoms: _506  and  _507
REMARK  208  A    between atoms: _506  and  _509
REMARK  209  A    between atoms: _509  and  _510
REMARK  210  A    between atoms: _515  and  _517
REMARK  211  A    between atoms: _517  and  _518
REMARK  212  A    between atoms: _517  and  _520
REMARK  213  A    between atoms: _520  and  _521
REMARK  214  A    between atoms: _524  and  _526
REMARK  215  A    between atoms: _526  and  _527
REMARK  216  A    between atoms: _529  and  _531
REMARK  217  A    between atoms: _531  and  _532
REMARK  218  A    between atoms: _531  and  _534
REMARK  219  A    between atoms: _534  and  _535
REMARK  220  A    between atoms: _535  and  _536
REMARK  221  A    between atoms: _536  and  _537
REMARK  222  A    between atoms: _546  and  _548
REMARK  223  A    between atoms: _548  and  _549
REMARK  224  A    between atoms: _548  and  _551
REMARK  225  A    between atoms: _551  and  _552
REMARK                            x       y       z     vdW  Elec       q    Type
REMARK                         _______ _______ _______ _____ _____    ______ ____
ROOT
ATOM      1  O   HOH     1       9.358  16.086  26.715  0.00  0.00    +0.000 OA
ENDROOT
TORSDOF 0
REMARK  Name = ../refined-set-2016/4dfg/4dfg_pocket.pdb
REMARK  225 active torsions:
REMARK  status: ('A' for Active; 'I' for Inactive)
REMARK    1  A    between atoms: _1  and  _3
REMARK    2  A    between atoms: _3  and  _4
REMARK    3  A    between atoms: _3  and  _6
REMARK    4  A    between atoms: _6  and  _7
REMARK    5  A    between atoms: _7  and  _8
REMARK    6  A    between atoms: _8  and  _9
REMARK    7  A    between atoms: _18  and  _20
REMARK    8  A    between atoms: _20  and  _21
REMARK    9  A    between atoms: _20  and  _23
REMARK   10  A    between atoms: _23  and  _24
REMARK   11  A    between atoms: _27  and  _29
REMARK   12  A    between atoms: _29  and  _30
REMARK   13  A    between atoms: _29  and  _32
REMARK   14  A    between atoms: _32  and  _33
REMARK   15  A    between atoms: _36  and  _38
REMARK   16  A    between atoms: _38  and  _39
REMARK   17  A    between atoms: _38  and  _41
REMARK   18  A    between atoms: _41  and  _42
REMARK   19  A    between atoms: _45  and  _47
REMARK   20  A    between atoms: _47  and  _48
REMARK   21  A    between atoms: _47  and  _50
REMARK   22  A    between atoms: _50  and  _51
REMARK   23  A    between atoms: _54  and  _56
REMARK   24  A    between atoms: _56  and  _57
REMARK   25  A    between atoms: _59  and  _61
REMARK   26  A    between atoms: _61  and  _62
REMARK   27  A    between atoms: _65  and  _67
REMARK   28  A    between atoms: _67  and  _68
REMARK   29  A    between atoms: _67  and  _70
REMARK   30  A    between atoms: _70  and  _71
REMARK   31  A    between atoms: _74  and  _76
REMARK   32  A    between atoms: _76  and  _77
REMARK   33  A    between atoms: _76  and  _79
REMARK   34  A    between atoms: _79  and  _80
REMARK   35  A    between atoms: _83  and  _85
REMARK   36  A    between atoms: _85  and  _86
REMARK   37  A    between atoms: _85  and  _88
REMARK   38  A    between atoms: _88  and  _89
REMARK   39  A    between atoms: _92  and  _94
REMARK   40  A    between atoms: _94  and  _95
REMARK   41  A    between atoms: _94  and  _97
REMARK   42  A    between atoms: _100  and  _102
REMARK   43  A    between atoms: _102  and  _103
REMARK   44  A    between atoms: _102  and  _105
REMARK   45  A    between atoms: _105  and  _106
REMARK   46  A    between atoms: _106  and  _107
REMARK   47  A    between atoms: _107  and  _108
REMARK   48  A    between atoms: _108  and  _109
REMARK   49  A    between atoms: _113  and  _115
REMARK   50  A    between atoms: _115  and  _116
REMARK   51  A    between atoms: _115  and  _118
REMARK   52  A    between atoms: _118  and  _119
REMARK   53  A    between atoms: _119  and  _120
REMARK   54  A    between atoms: _122  and  _124
REMARK   55  A    between atoms: _124  and  _125
REMARK   56  A    between atoms: _124  and  _127
REMARK   57  A    between atoms: _127  and  _128
REMARK   58  A    between atoms: _131  and  _133
REMARK   59  A    between atoms: _133  and  _134
REMARK   60  A    between atoms: _136  and  _138
REMARK   61  A    between atoms: _138  and  _139
REMARK   62  A    between atoms: _141  and  _143
REMARK   63  A    between atoms: _143  and  _144
REMARK   64  A    between atoms: _143  and  _146
REMARK   65  A    between atoms: _146  and  _147
REMARK   66  A    between atoms: _150  and  _152
REMARK   67  A    between atoms: _152  and  _153
REMARK   68  A    between atoms: _155  and  _157
REMARK   69  A    between atoms: _157  and  _158
REMARK   70  A    between atoms: _160  and  _162
REMARK   71  A    between atoms: _162  and  _163
REMARK   72  A    between atoms: _162  and  _165
REMARK   73  A    between atoms: _165  and  _166
REMARK   74  A    between atoms: _172  and  _174
REMARK   75  A    between atoms: _174  and  _175
REMARK   76  A    between atoms: _174  and  _177
REMARK   77  A    between atoms: _177  and  _178
REMARK   78  A    between atoms: _181  and  _183
REMARK   79  A    between atoms: _183  and  _184
REMARK   80  A    between atoms: _183  and  _186
REMARK   81  A    between atoms: _189  and  _191
REMARK   82  A    between atoms: _191  and  _192
REMARK   83  A    between atoms: _191  and  _194
REMARK   84  A    between atoms: _194  and  _195
REMARK   85  A    between atoms: _199  and  _200
REMARK   86  A    between atoms: _205  and  _207
REMARK   87  A    between atoms: _207  and  _208
REMARK   88  A    between atoms: _207  and  _210
REMARK   89  A    between atoms: _210  and  _211
REMARK   90  A    between atoms: _215  and  _216
REMARK   91  A    between atoms: _221  and  _223
REMARK   92  A    between atoms: _223  and  _224
REMARK   93  A    between atoms: _223  and  _226
REMARK   94  A    between atoms: _229  and  _231
REMARK   95  A    between atoms: _231  and  _232
REMARK   96  A    between atoms: _231  and  _234
REMARK   97  A    between atoms: _234  and  _235
REMARK   98  A    between atoms: _240  and  _242
REMARK   99  A    between atoms: _242  and  _243
REMARK  100  A    between atoms: _242  and  _245
REMARK  101  A    between atoms: _245  and  _246
REMARK  102  A    between atoms: _249  and  _251
REMARK  103  A    between atoms: _251  and  _252
REMARK  104  A    between atoms: _251  and  _254
REMARK  105  A    between atoms: _254  and  _255
REMARK  106  A    between atoms: _258  and  _260
REMARK  107  A    between atoms: _260  and  _261
REMARK  108  A    between atoms: _263  and  _265
REMARK  109  A    between atoms: _265  and  _266
REMARK  110  A    between atoms: _265  and  _268
REMARK  111  A    between atoms: _269  and  _270
REMARK  112  A    between atoms: _270  and  _271
REMARK  113  A    between atoms: _280  and  _282
REMARK  114  A    between atoms: _282  and  _283
REMARK  115  A    between atoms: _282  and  _285
REMARK  116  A    between atoms: _285  and  _286
REMARK  117  A    between atoms: _291  and  _293
REMARK  118  A    between atoms: _293  and  _294
REMARK  119  A    between atoms: _293  and  _296
REMARK  120  A    between atoms: _296  and  _297
REMARK  121  A    between atoms: _297  and  _298
REMARK  122  A    between atoms: _298  and  _299
REMARK  123  A    between atoms: _308  and  _310
REMARK  124  A    between atoms: _310  and  _311
REMARK  125  A    between atoms: _310  and  _313
REMARK  126  A    between atoms: _313  and  _314
REMARK  127  A    between atoms: _317  and  _319
REMARK  128  A    between atoms: _319  and  _320
REMARK  129  A    between atoms: _319  and  _322
REMARK  130  A    between atoms: _322  and  _323
REMARK  131  A    between atoms: _326  and  _328
REMARK  132  A    between atoms: _328  and  _329
REMARK  133  A    between atoms: _328  and  _331
REMARK  134  A    between atoms: _331  and  _332
REMARK  135  A    between atoms: _335  and  _337
REMARK  136  A    between atoms: _337  and  _338
REMARK  137  A    between atoms: _337  and  _340
REMARK  138  A    between atoms: _340  and  _341
REMARK  139  A    between atoms: _344  and  _346
REMARK  140  A    between atoms: _346  and  _347
REMARK  141  A    between atoms: _349  and  _351
REMARK  142  A    between atoms: _351  and  _352
REMARK  143  A    between atoms: _355  and  _357
REMARK  144  A    between atoms: _357  and  _358
REMARK  145  A    between atoms: _357  and  _360
REMARK  146  A    between atoms: _360  and  _361
REMARK  147  A    between atoms: _364  and  _366
REMARK  148  A    between atoms: _366  and  _367
REMARK  149  A    between atoms: _366  and  _369
REMARK  150  A    between atoms: _369  and  _370
REMARK  151  A    between atoms: _373  and  _375
REMARK  152  A    between atoms: _375  and  _376
REMARK  153  A    between atoms: _375  and  _378
REMARK  154  A    between atoms: _378  and  _379
REMARK  155  A    between atoms: _382  and  _384
REMARK  156  A    between atoms: _384  and  _385
REMARK  157  A    between atoms: _384  and  _387
REMARK  158  A    between atoms: _390  and  _392
REMARK  159  A    between atoms: _392  and  _393
REMARK  160  A    between atoms: _392  and  _395
REMARK  161  A    between atoms: _395  and  _396
REMARK  162  A    between atoms: _396  and  _397
REMARK  163  A    between atoms: _397  and  _398
REMARK  164  A    between atoms: _398  and  _399
REMARK  165  A    between atoms: _403  and  _405
REMARK  166  A    between atoms: _405  and  _406
REMARK  167  A    between atoms: _405  and  _408
REMARK  168  A    between atoms: _408  and  _409
REMARK  169  A    between atoms: _409  and  _410
REMARK  170  A    between atoms: _412  and  _414
REMARK  171  A    between atoms: _414  and  _415
REMARK  172  A    between atoms: _414  and  _417
REMARK  173  A    between atoms: _417  and  _418
REMARK  174  A    between atoms: _421  and  _423
REMARK  175  A    between atoms: _423  and  _424
REMARK  176  A    between atoms: _426  and  _428
REMARK  177  A    between atoms: _428  and  _429
REMARK  178  A    between atoms: _431  and  _433
REMARK  179  A    between atoms: _433  and  _434
REMARK  180  A    between atoms: _433  and  _436
REMARK  181  A    between atoms: _436  and  _437
REMARK  182  A    between atoms: _440  and  _442
REMARK  183  A    between atoms: _442  and  _443
REMARK  184  A    between atoms: _445  and  _447
REMARK  185  A    between atoms: _447  and  _448
REMARK  186  A    between atoms: _450  and  _452
REMARK  187  A    between atoms: _452  and  _453
REMARK  188  A    between atoms: _452  and  _455
REMARK  189  A    between atoms: _455  and  _456
REMARK  190  A    between atoms: _462  and  _464
REMARK  191  A    between atoms: _464  and  _465
REMARK  192  A    between atoms: _464  and  _467
REMARK  193  A    between atoms: _467  and  _468
REMARK  194  A    between atoms: _471  and  _473
REMARK  195  A    between atoms: _473  and  _474
REMARK  196  A    between atoms: _473  and  _476
REMARK  197  A    between atoms: _476  and  _477
REMARK  198  A    between atoms: _480  and  _482
REMARK  199  A    between atoms: _482  and  _483
REMARK  200  A    between atoms: _482  and  _485
REMARK  201  A    between atoms: _485  and  _486
REMARK  202  A    between atoms: _490  and  _491
REMARK  203  A    between atoms: _496  and  _498
REMARK  204  A    between atoms: _498  and  _499
REMARK  205  A    between atoms: _498  and  _501
REMARK  206  A    between atoms: _504  and  _506
REMARK  207  A    between atoms: _506  and  _507
REMARK  208  A    between atoms: _506  and  _509
REMARK  209  A    between atoms: _509  and  _510
REMARK  210  A    between atoms: _515  and  _517
REMARK  211  A    between atoms: _517  and  _518
REMARK  212  A    between atoms: _517  and  _520
REMARK  213  A    between atoms: _520  and  _521
REMARK  214  A    between atoms: _524  and  _526
REMARK  215  A    between atoms: _526  and  _527
REMARK  216  A    between atoms: _529  and  _531
REMARK  217  A    between atoms: _531  and  _532
REMARK  218  A    between atoms: _531  and  _534
REMARK  219  A    between atoms: _534  and  _535
REMARK  220  A    between atoms: _535  and  _536
REMARK  221  A    between atoms: _536  and  _537
REMARK  222  A    between atoms: _546  and  _548
REMARK  223  A    between atoms: _548  and  _549
REMARK  224  A    between atoms: _548  and  _551
REMARK  225  A    between atoms: _551  and  _552
REMARK                            x       y       z     vdW  Elec       q    Type
REMARK                         _______ _______ _______ _____ _____    ______ ____
ROOT
ATOM      1  O   HOH     1      15.925  15.542  11.807  0.00  0.00    +0.000 OA
ENDROOT
TORSDOF 0
REMARK  Name = ../refined-set-2016/4dfg/4dfg_pocket.pdb
REMARK  225 active torsions:
REMARK  status: ('A' for Active; 'I' for Inactive)
REMARK    1  A    between atoms: _1  and  _3
REMARK    2  A    between atoms: _3  and  _4
REMARK    3  A    between atoms: _3  and  _6
REMARK    4  A    between atoms: _6  and  _7
REMARK    5  A    between atoms: _7  and  _8
REMARK    6  A    between atoms: _8  and  _9
REMARK    7  A    between atoms: _18  and  _20
REMARK    8  A    between atoms: _20  and  _21
REMARK    9  A    between atoms: _20  and  _23
REMARK   10  A    between atoms: _23  and  _24
REMARK   11  A    between atoms: _27  and  _29
REMARK   12  A    between atoms: _29  and  _30
REMARK   13  A    between atoms: _29  and  _32
REMARK   14  A    between atoms: _32  and  _33
REMARK   15  A    between atoms: _36  and  _38
REMARK   16  A    between atoms: _38  and  _39
REMARK   17  A    between atoms: _38  and  _41
REMARK   18  A    between atoms: _41  and  _42
REMARK   19  A    between atoms: _45  and  _47
REMARK   20  A    between atoms: _47  and  _48
REMARK   21  A    between atoms: _47  and  _50
REMARK   22  A    between atoms: _50  and  _51
REMARK   23  A    between atoms: _54  and  _56
REMARK   24  A    between atoms: _56  and  _57
REMARK   25  A    between atoms: _59  and  _61
REMARK   26  A    between atoms: _61  and  _62
REMARK   27  A    between atoms: _65  and  _67
REMARK   28  A    between atoms: _67  and  _68
REMARK   29  A    between atoms: _67  and  _70
REMARK   30  A    between atoms: _70  and  _71
REMARK   31  A    between atoms: _74  and  _76
REMARK   32  A    between atoms: _76  and  _77
REMARK   33  A    between atoms: _76  and  _79
REMARK   34  A    between atoms: _79  and  _80
REMARK   35  A    between atoms: _83  and  _85
REMARK   36  A    between atoms: _85  and  _86
REMARK   37  A    between atoms: _85  and  _88
REMARK   38  A    between atoms: _88  and  _89
REMARK   39  A    between atoms: _92  and  _94
REMARK   40  A    between atoms: _94  and  _95
REMARK   41  A    between atoms: _94  and  _97
REMARK   42  A    between atoms: _100  and  _102
REMARK   43  A    between atoms: _102  and  _103
REMARK   44  A    between atoms: _102  and  _105
REMARK   45  A    between atoms: _105  and  _106
REMARK   46  A    between atoms: _106  and  _107
REMARK   47  A    between atoms: _107  and  _108
REMARK   48  A    between atoms: _108  and  _109
REMARK   49  A    between atoms: _113  and  _115
REMARK   50  A    between atoms: _115  and  _116
REMARK   51  A    between atoms: _115  and  _118
REMARK   52  A    between atoms: _118  and  _119
REMARK   53  A    between atoms: _119  and  _120
REMARK   54  A    between atoms: _122  and  _124
REMARK   55  A    between atoms: _124  and  _125
REMARK   56  A    between atoms: _124  and  _127
REMARK   57  A    between atoms: _127  and  _128
REMARK   58  A    between atoms: _131  and  _133
REMARK   59  A    between atoms: _133  and  _134
REMARK   60  A    between atoms: _136  and  _138
REMARK   61  A    between atoms: _138  and  _139
REMARK   62  A    between atoms: _141  and  _143
REMARK   63  A    between atoms: _143  and  _144
REMARK   64  A    between atoms: _143  and  _146
REMARK   65  A    between atoms: _146  and  _147
REMARK   66  A    between atoms: _150  and  _152
REMARK   67  A    between atoms: _152  and  _153
REMARK   68  A    between atoms: _155  and  _157
REMARK   69  A    between atoms: _157  and  _158
REMARK   70  A    between atoms: _160  and  _162
REMARK   71  A    between atoms: _162  and  _163
REMARK   72  A    between atoms: _162  and  _165
REMARK   73  A    between atoms: _165  and  _166
REMARK   74  A    between atoms: _172  and  _174
REMARK   75  A    between atoms: _174  and  _175
REMARK   76  A    between atoms: _174  and  _177
REMARK   77  A    between atoms: _177  and  _178
REMARK   78  A    between atoms: _181  and  _183
REMARK   79  A    between atoms: _183  and  _184
REMARK   80  A    between atoms: _183  and  _186
REMARK   81  A    between atoms: _189  and  _191
REMARK   82  A    between atoms: _191  and  _192
REMARK   83  A    between atoms: _191  and  _194
REMARK   84  A    between atoms: _194  and  _195
REMARK   85  A    between atoms: _199  and  _200
REMARK   86  A    between atoms: _205  and  _207
REMARK   87  A    between atoms: _207  and  _208
REMARK   88  A    between atoms: _207  and  _210
REMARK   89  A    between atoms: _210  and  _211
REMARK   90  A    between atoms: _215  and  _216
REMARK   91  A    between atoms: _221  and  _223
REMARK   92  A    between atoms: _223  and  _224
REMARK   93  A    between atoms: _223  and  _226
REMARK   94  A    between atoms: _229  and  _231
REMARK   95  A    between atoms: _231  and  _232
REMARK   96  A    between atoms: _231  and  _234
REMARK   97  A    between atoms: _234  and  _235
REMARK   98  A    between atoms: _240  and  _242
REMARK   99  A    between atoms: _242  and  _243
REMARK  100  A    between atoms: _242  and  _245
REMARK  101  A    between atoms: _245  and  _246
REMARK  102  A    between atoms: _249  and  _251
REMARK  103  A    between atoms: _251  and  _252
REMARK  104  A    between atoms: _251  and  _254
REMARK  105  A    between atoms: _254  and  _255
REMARK  106  A    between atoms: _258  and  _260
REMARK  107  A    between atoms: _260  and  _261
REMARK  108  A    between atoms: _263  and  _265
REMARK  109  A    between atoms: _265  and  _266
REMARK  110  A    between atoms: _265  and  _268
REMARK  111  A    between atoms: _269  and  _270
REMARK  112  A    between atoms: _270  and  _271
REMARK  113  A    between atoms: _280  and  _282
REMARK  114  A    between atoms: _282  and  _283
REMARK  115  A    between atoms: _282  and  _285
REMARK  116  A    between atoms: _285  and  _286
REMARK  117  A    between atoms: _291  and  _293
REMARK  118  A    between atoms: _293  and  _294
REMARK  119  A    between atoms: _293  and  _296
REMARK  120  A    between atoms: _296  and  _297
REMARK  121  A    between atoms: _297  and  _298
REMARK  122  A    between atoms: _298  and  _299
REMARK  123  A    between atoms: _308  and  _310
REMARK  124  A    between atoms: _310  and  _311
REMARK  125  A    between atoms: _310  and  _313
REMARK  126  A    between atoms: _313  and  _314
REMARK  127  A    between atoms: _317  and  _319
REMARK  128  A    between atoms: _319  and  _320
REMARK  129  A    between atoms: _319  and  _322
REMARK  130  A    between atoms: _322  and  _323
REMARK  131  A    between atoms: _326  and  _328
REMARK  132  A    between atoms: _328  and  _329
REMARK  133  A    between atoms: _328  and  _331
REMARK  134  A    between atoms: _331  and  _332
REMARK  135  A    between atoms: _335  and  _337
REMARK  136  A    between atoms: _337  and  _338
REMARK  137  A    between atoms: _337  and  _340
REMARK  138  A    between atoms: _340  and  _341
REMARK  139  A    between atoms: _344  and  _346
REMARK  140  A    between atoms: _346  and  _347
REMARK  141  A    between atoms: _349  and  _351
REMARK  142  A    between atoms: _351  and  _352
REMARK  143  A    between atoms: _355  and  _357
REMARK  144  A    between atoms: _357  and  _358
REMARK  145  A    between atoms: _357  and  _360
REMARK  146  A    between atoms: _360  and  _361
REMARK  147  A    between atoms: _364  and  _366
REMARK  148  A    between atoms: _366  and  _367
REMARK  149  A    between atoms: _366  and  _369
REMARK  150  A    between atoms: _369  and  _370
REMARK  151  A    between atoms: _373  and  _375
REMARK  152  A    between atoms: _375  and  _376
REMARK  153  A    between atoms: _375  and  _378
REMARK  154  A    between atoms: _378  and  _379
REMARK  155  A    between atoms: _382  and  _384
REMARK  156  A    between atoms: _384  and  _385
REMARK  157  A    between atoms: _384  and  _387
REMARK  158  A    between atoms: _390  and  _392
REMARK  159  A    between atoms: _392  and  _393
REMARK  160  A    between atoms: _392  and  _395
REMARK  161  A    between atoms: _395  and  _396
REMARK  162  A    between atoms: _396  and  _397
REMARK  163  A    between atoms: _397  and  _398
REMARK  164  A    between atoms: _398  and  _399
REMARK  165  A    between atoms: _403  and  _405
REMARK  166  A    between atoms: _405  and  _406
REMARK  167  A    between atoms: _405  and  _408
REMARK  168  A    between atoms: _408  and  _409
REMARK  169  A    between atoms: _409  and  _410
REMARK  170  A    between atoms: _412  and  _414
REMARK  171  A    between atoms: _414  and  _415
REMARK  172  A    between atoms: _414  and  _417
REMARK  173  A    between atoms: _417  and  _418
REMARK  174  A    between atoms: _421  and  _423
REMARK  175  A    between atoms: _423  and  _424
REMARK  176  A    between atoms: _426  and  _428
REMARK  177  A    between atoms: _428  and  _429
REMARK  178  A    between atoms: _431  and  _433
REMARK  179  A    between atoms: _433  and  _434
REMARK  180  A    between atoms: _433  and  _436
REMARK  181  A    between atoms: _436  and  _437
REMARK  182  A    between atoms: _440  and  _442
REMARK  183  A    between atoms: _442  and  _443
REMARK  184  A    between atoms: _445  and  _447
REMARK  185  A    between atoms: _447  and  _448
REMARK  186  A    between atoms: _450  and  _452
REMARK  187  A    between atoms: _452  and  _453
REMARK  188  A    between atoms: _452  and  _455
REMARK  189  A    between atoms: _455  and  _456
REMARK  190  A    between atoms: _462  and  _464
REMARK  191  A    between atoms: _464  and  _465
REMARK  192  A    between atoms: _464  and  _467
REMARK  193  A    between atoms: _467  and  _468
REMARK  194  A    between atoms: _471  and  _473
REMARK  195  A    between atoms: _473  and  _474
REMARK  196  A    between atoms: _473  and  _476
REMARK  197  A    between atoms: _476  and  _477
REMARK  198  A    between atoms: _480  and  _482
REMARK  199  A    between atoms: _482  and  _483
REMARK  200  A    between atoms: _482  and  _485
REMARK  201  A    between atoms: _485  and  _486
REMARK  202  A    between atoms: _490  and  _491
REMARK  203  A    between atoms: _496  and  _498
REMARK  204  A    between atoms: _498  and  _499
REMARK  205  A    between atoms: _498  and  _501
REMARK  206  A    between atoms: _504  and  _506
REMARK  207  A    between atoms: _506  and  _507
REMARK  208  A    between atoms: _506  and  _509
REMARK  209  A    between atoms: _509  and  _510
REMARK  210  A    between atoms: _515  and  _517
REMARK  211  A    between atoms: _517  and  _518
REMARK  212  A    between atoms: _517  and  _520
REMARK  213  A    between atoms: _520  and  _521
REMARK  214  A    between atoms: _524  and  _526
REMARK  215  A    between atoms: _526  and  _527
REMARK  216  A    between atoms: _529  and  _531
REMARK  217  A    between atoms: _531  and  _532
REMARK  218  A    between atoms: _531  and  _534
REMARK  219  A    between atoms: _534  and  _535
REMARK  220  A    between atoms: _535  and  _536
REMARK  221  A    between atoms: _536  and  _537
REMARK  222  A    between atoms: _546  and  _548
REMARK  223  A    between atoms: _548  and  _549
REMARK  224  A    between atoms: _548  and  _551
REMARK  225  A    between atoms: _551  and  _552
REMARK                            x       y       z     vdW  Elec       q    Type
REMARK                         _______ _______ _______ _____ _____    ______ ____
ROOT
ATOM      1  O   HOH     1      23.313  27.936  26.212  0.00  0.00    +0.000 OA
ENDROOT
TORSDOF 0
REMARK  Name = ../refined-set-2016/4dfg/4dfg_pocket.pdb
REMARK  225 active torsions:
REMARK  status: ('A' for Active; 'I' for Inactive)
REMARK    1  A    between atoms: _1  and  _3
REMARK    2  A    between atoms: _3  and  _4
REMARK    3  A    between atoms: _3  and  _6
REMARK    4  A    between atoms: _6  and  _7
REMARK    5  A    between atoms: _7  and  _8
REMARK    6  A    between atoms: _8  and  _9
REMARK    7  A    between atoms: _18  and  _20
REMARK    8  A    between atoms: _20  and  _21
REMARK    9  A    between atoms: _20  and  _23
REMARK   10  A    between atoms: _23  and  _24
REMARK   11  A    between atoms: _27  and  _29
REMARK   12  A    between atoms: _29  and  _30
REMARK   13  A    between atoms: _29  and  _32
REMARK   14  A    between atoms: _32  and  _33
REMARK   15  A    between atoms: _36  and  _38
REMARK   16  A    between atoms: _38  and  _39
REMARK   17  A    between atoms: _38  and  _41
REMARK   18  A    between atoms: _41  and  _42
REMARK   19  A    between atoms: _45  and  _47
REMARK   20  A    between atoms: _47  and  _48
REMARK   21  A    between atoms: _47  and  _50
REMARK   22  A    between atoms: _50  and  _51
REMARK   23  A    between atoms: _54  and  _56
REMARK   24  A    between atoms: _56  and  _57
REMARK   25  A    between atoms: _59  and  _61
REMARK   26  A    between atoms: _61  and  _62
REMARK   27  A    between atoms: _65  and  _67
REMARK   28  A    between atoms: _67  and  _68
REMARK   29  A    between atoms: _67  and  _70
REMARK   30  A    between atoms: _70  and  _71
REMARK   31  A    between atoms: _74  and  _76
REMARK   32  A    between atoms: _76  and  _77
REMARK   33  A    between atoms: _76  and  _79
REMARK   34  A    between atoms: _79  and  _80
REMARK   35  A    between atoms: _83  and  _85
REMARK   36  A    between atoms: _85  and  _86
REMARK   37  A    between atoms: _85  and  _88
REMARK   38  A    between atoms: _88  and  _89
REMARK   39  A    between atoms: _92  and  _94
REMARK   40  A    between atoms: _94  and  _95
REMARK   41  A    between atoms: _94  and  _97
REMARK   42  A    between atoms: _100  and  _102
REMARK   43  A    between atoms: _102  and  _103
REMARK   44  A    between atoms: _102  and  _105
REMARK   45  A    between atoms: _105  and  _106
REMARK   46  A    between atoms: _106  and  _107
REMARK   47  A    between atoms: _107  and  _108
REMARK   48  A    between atoms: _108  and  _109
REMARK   49  A    between atoms: _113  and  _115
REMARK   50  A    between atoms: _115  and  _116
REMARK   51  A    between atoms: _115  and  _118
REMARK   52  A    between atoms: _118  and  _119
REMARK   53  A    between atoms: _119  and  _120
REMARK   54  A    between atoms: _122  and  _124
REMARK   55  A    between atoms: _124  and  _125
REMARK   56  A    between atoms: _124  and  _127
REMARK   57  A    between atoms: _127  and  _128
REMARK   58  A    between atoms: _131  and  _133
REMARK   59  A    between atoms: _133  and  _134
REMARK   60  A    between atoms: _136  and  _138
REMARK   61  A    between atoms: _138  and  _139
REMARK   62  A    between atoms: _141  and  _143
REMARK   63  A    between atoms: _143  and  _144
REMARK   64  A    between atoms: _143  and  _146
REMARK   65  A    between atoms: _146  and  _147
REMARK   66  A    between atoms: _150  and  _152
REMARK   67  A    between atoms: _152  and  _153
REMARK   68  A    between atoms: _155  and  _157
REMARK   69  A    between atoms: _157  and  _158
REMARK   70  A    between atoms: _160  and  _162
REMARK   71  A    between atoms: _162  and  _163
REMARK   72  A    between atoms: _162  and  _165
REMARK   73  A    between atoms: _165  and  _166
REMARK   74  A    between atoms: _172  and  _174
REMARK   75  A    between atoms: _174  and  _175
REMARK   76  A    between atoms: _174  and  _177
REMARK   77  A    between atoms: _177  and  _178
REMARK   78  A    between atoms: _181  and  _183
REMARK   79  A    between atoms: _183  and  _184
REMARK   80  A    between atoms: _183  and  _186
REMARK   81  A    between atoms: _189  and  _191
REMARK   82  A    between atoms: _191  and  _192
REMARK   83  A    between atoms: _191  and  _194
REMARK   84  A    between atoms: _194  and  _195
REMARK   85  A    between atoms: _199  and  _200
REMARK   86  A    between atoms: _205  and  _207
REMARK   87  A    between atoms: _207  and  _208
REMARK   88  A    between atoms: _207  and  _210
REMARK   89  A    between atoms: _210  and  _211
REMARK   90  A    between atoms: _215  and  _216
REMARK   91  A    between atoms: _221  and  _223
REMARK   92  A    between atoms: _223  and  _224
REMARK   93  A    between atoms: _223  and  _226
REMARK   94  A    between atoms: _229  and  _231
REMARK   95  A    between atoms: _231  and  _232
REMARK   96  A    between atoms: _231  and  _234
REMARK   97  A    between atoms: _234  and  _235
REMARK   98  A    between atoms: _240  and  _242
REMARK   99  A    between atoms: _242  and  _243
REMARK  100  A    between atoms: _242  and  _245
REMARK  101  A    between atoms: _245  and  _246
REMARK  102  A    between atoms: _249  and  _251
REMARK  103  A    between atoms: _251  and  _252
REMARK  104  A    between atoms: _251  and  _254
REMARK  105  A    between atoms: _254  and  _255
REMARK  106  A    between atoms: _258  and  _260
REMARK  107  A    between atoms: _260  and  _261
REMARK  108  A    between atoms: _263  and  _265
REMARK  109  A    between atoms: _265  and  _266
REMARK  110  A    between atoms: _265  and  _268
REMARK  111  A    between atoms: _269  and  _270
REMARK  112  A    between atoms: _270  and  _271
REMARK  113  A    between atoms: _280  and  _282
REMARK  114  A    between atoms: _282  and  _283
REMARK  115  A    between atoms: _282  and  _285
REMARK  116  A    between atoms: _285  and  _286
REMARK  117  A    between atoms: _291  and  _293
REMARK  118  A    between atoms: _293  and  _294
REMARK  119  A    between atoms: _293  and  _296
REMARK  120  A    between atoms: _296  and  _297
REMARK  121  A    between atoms: _297  and  _298
REMARK  122  A    between atoms: _298  and  _299
REMARK  123  A    between atoms: _308  and  _310
REMARK  124  A    between atoms: _310  and  _311
REMARK  125  A    between atoms: _310  and  _313
REMARK  126  A    between atoms: _313  and  _314
REMARK  127  A    between atoms: _317  and  _319
REMARK  128  A    between atoms: _319  and  _320
REMARK  129  A    between atoms: _319  and  _322
REMARK  130  A    between atoms: _322  and  _323
REMARK  131  A    between atoms: _326  and  _328
REMARK  132  A    between atoms: _328  and  _329
REMARK  133  A    between atoms: _328  and  _331
REMARK  134  A    between atoms: _331  and  _332
REMARK  135  A    between atoms: _335  and  _337
REMARK  136  A    between atoms: _337  and  _338
REMARK  137  A    between atoms: _337  and  _340
REMARK  138  A    between atoms: _340  and  _341
REMARK  139  A    between atoms: _344  and  _346
REMARK  140  A    between atoms: _346  and  _347
REMARK  141  A    between atoms: _349  and  _351
REMARK  142  A    between atoms: _351  and  _352
REMARK  143  A    between atoms: _355  and  _357
REMARK  144  A    between atoms: _357  and  _358
REMARK  145  A    between atoms: _357  and  _360
REMARK  146  A    between atoms: _360  and  _361
REMARK  147  A    between atoms: _364  and  _366
REMARK  148  A    between atoms: _366  and  _367
REMARK  149  A    between atoms: _366  and  _369
REMARK  150  A    between atoms: _369  and  _370
REMARK  151  A    between atoms: _373  and  _375
REMARK  152  A    between atoms: _375  and  _376
REMARK  153  A    between atoms: _375  and  _378
REMARK  154  A    between atoms: _378  and  _379
REMARK  155  A    between atoms: _382  and  _384
REMARK  156  A    between atoms: _384  and  _385
REMARK  157  A    between atoms: _384  and  _387
REMARK  158  A    between atoms: _390  and  _392
REMARK  159  A    between atoms: _392  and  _393
REMARK  160  A    between atoms: _392  and  _395
REMARK  161  A    between atoms: _395  and  _396
REMARK  162  A    between atoms: _396  and  _397
REMARK  163  A    between atoms: _397  and  _398
REMARK  164  A    between atoms: _398  and  _399
REMARK  165  A    between atoms: _403  and  _405
REMARK  166  A    between atoms: _405  and  _406
REMARK  167  A    between atoms: _405  and  _408
REMARK  168  A    between atoms: _408  and  _409
REMARK  169  A    between atoms: _409  and  _410
REMARK  170  A    between atoms: _412  and  _414
REMARK  171  A    between atoms: _414  and  _415
REMARK  172  A    between atoms: _414  and  _417
REMARK  173  A    between atoms: _417  and  _418
REMARK  174  A    between atoms: _421  and  _423
REMARK  175  A    between atoms: _423  and  _424
REMARK  176  A    between atoms: _426  and  _428
REMARK  177  A    between atoms: _428  and  _429
REMARK  178  A    between atoms: _431  and  _433
REMARK  179  A    between atoms: _433  and  _434
REMARK  180  A    between atoms: _433  and  _436
REMARK  181  A    between atoms: _436  and  _437
REMARK  182  A    between atoms: _440  and  _442
REMARK  183  A    between atoms: _442  and  _443
REMARK  184  A    between atoms: _445  and  _447
REMARK  185  A    between atoms: _447  and  _448
REMARK  186  A    between atoms: _450  and  _452
REMARK  187  A    between atoms: _452  and  _453
REMARK  188  A    between atoms: _452  and  _455
REMARK  189  A    between atoms: _455  and  _456
REMARK  190  A    between atoms: _462  and  _464
REMARK  191  A    between atoms: _464  and  _465
REMARK  192  A    between atoms: _464  and  _467
REMARK  193  A    between atoms: _467  and  _468
REMARK  194  A    between atoms: _471  and  _473
REMARK  195  A    between atoms: _473  and  _474
REMARK  196  A    between atoms: _473  and  _476
REMARK  197  A    between atoms: _476  and  _477
REMARK  198  A    between atoms: _480  and  _482
REMARK  199  A    between atoms: _482  and  _483
REMARK  200  A    between atoms: _482  and  _485
REMARK  201  A    between atoms: _485  and  _486
REMARK  202  A    between atoms: _490  and  _491
REMARK  203  A    between atoms: _496  and  _498
REMARK  204  A    between atoms: _498  and  _499
REMARK  205  A    between atoms: _498  and  _501
REMARK  206  A    between atoms: _504  and  _506
REMARK  207  A    between atoms: _506  and  _507
REMARK  208  A    between atoms: _506  and  _509
REMARK  209  A    between atoms: _509  and  _510
REMARK  210  A    between atoms: _515  and  _517
REMARK  211  A    between atoms: _517  and  _518
REMARK  212  A    between atoms: _517  and  _520
REMARK  213  A    between atoms: _520  and  _521
REMARK  214  A    between atoms: _524  and  _526
REMARK  215  A    between atoms: _526  and  _527
REMARK  216  A    between atoms: _529  and  _531
REMARK  217  A    between atoms: _531  and  _532
REMARK  218  A    between atoms: _531  and  _534
REMARK  219  A    between atoms: _534  and  _535
REMARK  220  A    between atoms: _535  and  _536
REMARK  221  A    between atoms: _536  and  _537
REMARK  222  A    between atoms: _546  and  _548
REMARK  223  A    between atoms: _548  and  _549
REMARK  224  A    between atoms: _548  and  _551
REMARK  225  A    between atoms: _551  and  _552
REMARK                            x       y       z     vdW  Elec       q    Type
REMARK                         _______ _______ _______ _____ _____    ______ ____
ROOT
ATOM      1  O   HOH     1      13.288  16.104  11.759  0.00  0.00    +0.000 OA
ENDROOT
TORSDOF 0
REMARK  Name = ../refined-set-2016/4dfg/4dfg_pocket.pdb
REMARK  225 active torsions:
REMARK  status: ('A' for Active; 'I' for Inactive)
REMARK    1  A    between atoms: _1  and  _3
REMARK    2  A    between atoms: _3  and  _4
REMARK    3  A    between atoms: _3  and  _6
REMARK    4  A    between atoms: _6  and  _7
REMARK    5  A    between atoms: _7  and  _8
REMARK    6  A    between atoms: _8  and  _9
REMARK    7  A    between atoms: _18  and  _20
REMARK    8  A    between atoms: _20  and  _21
REMARK    9  A    between atoms: _20  and  _23
REMARK   10  A    between atoms: _23  and  _24
REMARK   11  A    between atoms: _27  and  _29
REMARK   12  A    between atoms: _29  and  _30
REMARK   13  A    between atoms: _29  and  _32
REMARK   14  A    between atoms: _32  and  _33
REMARK   15  A    between atoms: _36  and  _38
REMARK   16  A    between atoms: _38  and  _39
REMARK   17  A    between atoms: _38  and  _41
REMARK   18  A    between atoms: _41  and  _42
REMARK   19  A    between atoms: _45  and  _47
REMARK   20  A    between atoms: _47  and  _48
REMARK   21  A    between atoms: _47  and  _50
REMARK   22  A    between atoms: _50  and  _51
REMARK   23  A    between atoms: _54  and  _56
REMARK   24  A    between atoms: _56  and  _57
REMARK   25  A    between atoms: _59  and  _61
REMARK   26  A    between atoms: _61  and  _62
REMARK   27  A    between atoms: _65  and  _67
REMARK   28  A    between atoms: _67  and  _68
REMARK   29  A    between atoms: _67  and  _70
REMARK   30  A    between atoms: _70  and  _71
REMARK   31  A    between atoms: _74  and  _76
REMARK   32  A    between atoms: _76  and  _77
REMARK   33  A    between atoms: _76  and  _79
REMARK   34  A    between atoms: _79  and  _80
REMARK   35  A    between atoms: _83  and  _85
REMARK   36  A    between atoms: _85  and  _86
REMARK   37  A    between atoms: _85  and  _88
REMARK   38  A    between atoms: _88  and  _89
REMARK   39  A    between atoms: _92  and  _94
REMARK   40  A    between atoms: _94  and  _95
REMARK   41  A    between atoms: _94  and  _97
REMARK   42  A    between atoms: _100  and  _102
REMARK   43  A    between atoms: _102  and  _103
REMARK   44  A    between atoms: _102  and  _105
REMARK   45  A    between atoms: _105  and  _106
REMARK   46  A    between atoms: _106  and  _107
REMARK   47  A    between atoms: _107  and  _108
REMARK   48  A    between atoms: _108  and  _109
REMARK   49  A    between atoms: _113  and  _115
REMARK   50  A    between atoms: _115  and  _116
REMARK   51  A    between atoms: _115  and  _118
REMARK   52  A    between atoms: _118  and  _119
REMARK   53  A    between atoms: _119  and  _120
REMARK   54  A    between atoms: _122  and  _124
REMARK   55  A    between atoms: _124  and  _125
REMARK   56  A    between atoms: _124  and  _127
REMARK   57  A    between atoms: _127  and  _128
REMARK   58  A    between atoms: _131  and  _133
REMARK   59  A    between atoms: _133  and  _134
REMARK   60  A    between atoms: _136  and  _138
REMARK   61  A    between atoms: _138  and  _139
REMARK   62  A    between atoms: _141  and  _143
REMARK   63  A    between atoms: _143  and  _144
REMARK   64  A    between atoms: _143  and  _146
REMARK   65  A    between atoms: _146  and  _147
REMARK   66  A    between atoms: _150  and  _152
REMARK   67  A    between atoms: _152  and  _153
REMARK   68  A    between atoms: _155  and  _157
REMARK   69  A    between atoms: _157  and  _158
REMARK   70  A    between atoms: _160  and  _162
REMARK   71  A    between atoms: _162  and  _163
REMARK   72  A    between atoms: _162  and  _165
REMARK   73  A    between atoms: _165  and  _166
REMARK   74  A    between atoms: _172  and  _174
REMARK   75  A    between atoms: _174  and  _175
REMARK   76  A    between atoms: _174  and  _177
REMARK   77  A    between atoms: _177  and  _178
REMARK   78  A    between atoms: _181  and  _183
REMARK   79  A    between atoms: _183  and  _184
REMARK   80  A    between atoms: _183  and  _186
REMARK   81  A    between atoms: _189  and  _191
REMARK   82  A    between atoms: _191  and  _192
REMARK   83  A    between atoms: _191  and  _194
REMARK   84  A    between atoms: _194  and  _195
REMARK   85  A    between atoms: _199  and  _200
REMARK   86  A    between atoms: _205  and  _207
REMARK   87  A    between atoms: _207  and  _208
REMARK   88  A    between atoms: _207  and  _210
REMARK   89  A    between atoms: _210  and  _211
REMARK   90  A    between atoms: _215  and  _216
REMARK   91  A    between atoms: _221  and  _223
REMARK   92  A    between atoms: _223  and  _224
REMARK   93  A    between atoms: _223  and  _226
REMARK   94  A    between atoms: _229  and  _231
REMARK   95  A    between atoms: _231  and  _232
REMARK   96  A    between atoms: _231  and  _234
REMARK   97  A    between atoms: _234  and  _235
REMARK   98  A    between atoms: _240  and  _242
REMARK   99  A    between atoms: _242  and  _243
REMARK  100  A    between atoms: _242  and  _245
REMARK  101  A    between atoms: _245  and  _246
REMARK  102  A    between atoms: _249  and  _251
REMARK  103  A    between atoms: _251  and  _252
REMARK  104  A    between atoms: _251  and  _254
REMARK  105  A    between atoms: _254  and  _255
REMARK  106  A    between atoms: _258  and  _260
REMARK  107  A    between atoms: _260  and  _261
REMARK  108  A    between atoms: _263  and  _265
REMARK  109  A    between atoms: _265  and  _266
REMARK  110  A    between atoms: _265  and  _268
REMARK  111  A    between atoms: _269  and  _270
REMARK  112  A    between atoms: _270  and  _271
REMARK  113  A    between atoms: _280  and  _282
REMARK  114  A    between atoms: _282  and  _283
REMARK  115  A    between atoms: _282  and  _285
REMARK  116  A    between atoms: _285  and  _286
REMARK  117  A    between atoms: _291  and  _293
REMARK  118  A    between atoms: _293  and  _294
REMARK  119  A    between atoms: _293  and  _296
REMARK  120  A    between atoms: _296  and  _297
REMARK  121  A    between atoms: _297  and  _298
REMARK  122  A    between atoms: _298  and  _299
REMARK  123  A    between atoms: _308  and  _310
REMARK  124  A    between atoms: _310  and  _311
REMARK  125  A    between atoms: _310  and  _313
REMARK  126  A    between atoms: _313  and  _314
REMARK  127  A    between atoms: _317  and  _319
REMARK  128  A    between atoms: _319  and  _320
REMARK  129  A    between atoms: _319  and  _322
REMARK  130  A    between atoms: _322  and  _323
REMARK  131  A    between atoms: _326  and  _328
REMARK  132  A    between atoms: _328  and  _329
REMARK  133  A    between atoms: _328  and  _331
REMARK  134  A    between atoms: _331  and  _332
REMARK  135  A    between atoms: _335  and  _337
REMARK  136  A    between atoms: _337  and  _338
REMARK  137  A    between atoms: _337  and  _340
REMARK  138  A    between atoms: _340  and  _341
REMARK  139  A    between atoms: _344  and  _346
REMARK  140  A    between atoms: _346  and  _347
REMARK  141  A    between atoms: _349  and  _351
REMARK  142  A    between atoms: _351  and  _352
REMARK  143  A    between atoms: _355  and  _357
REMARK  144  A    between atoms: _357  and  _358
REMARK  145  A    between atoms: _357  and  _360
REMARK  146  A    between atoms: _360  and  _361
REMARK  147  A    between atoms: _364  and  _366
REMARK  148  A    between atoms: _366  and  _367
REMARK  149  A    between atoms: _366  and  _369
REMARK  150  A    between atoms: _369  and  _370
REMARK  151  A    between atoms: _373  and  _375
REMARK  152  A    between atoms: _375  and  _376
REMARK  153  A    between atoms: _375  and  _378
REMARK  154  A    between atoms: _378  and  _379
REMARK  155  A    between atoms: _382  and  _384
REMARK  156  A    between atoms: _384  and  _385
REMARK  157  A    between atoms: _384  and  _387
REMARK  158  A    between atoms: _390  and  _392
REMARK  159  A    between atoms: _392  and  _393
REMARK  160  A    between atoms: _392  and  _395
REMARK  161  A    between atoms: _395  and  _396
REMARK  162  A    between atoms: _396  and  _397
REMARK  163  A    between atoms: _397  and  _398
REMARK  164  A    between atoms: _398  and  _399
REMARK  165  A    between atoms: _403  and  _405
REMARK  166  A    between atoms: _405  and  _406
REMARK  167  A    between atoms: _405  and  _408
REMARK  168  A    between atoms: _408  and  _409
REMARK  169  A    between atoms: _409  and  _410
REMARK  170  A    between atoms: _412  and  _414
REMARK  171  A    between atoms: _414  and  _415
REMARK  172  A    between atoms: _414  and  _417
REMARK  173  A    between atoms: _417  and  _418
REMARK  174  A    between atoms: _421  and  _423
REMARK  175  A    between atoms: _423  and  _424
REMARK  176  A    between atoms: _426  and  _428
REMARK  177  A    between atoms: _428  and  _429
REMARK  178  A    between atoms: _431  and  _433
REMARK  179  A    between atoms: _433  and  _434
REMARK  180  A    between atoms: _433  and  _436
REMARK  181  A    between atoms: _436  and  _437
REMARK  182  A    between atoms: _440  and  _442
REMARK  183  A    between atoms: _442  and  _443
REMARK  184  A    between atoms: _445  and  _447
REMARK  185  A    between atoms: _447  and  _448
REMARK  186  A    between atoms: _450  and  _452
REMARK  187  A    between atoms: _452  and  _453
REMARK  188  A    between atoms: _452  and  _455
REMARK  189  A    between atoms: _455  and  _456
REMARK  190  A    between atoms: _462  and  _464
REMARK  191  A    between atoms: _464  and  _465
REMARK  192  A    between atoms: _464  and  _467
REMARK  193  A    between atoms: _467  and  _468
REMARK  194  A    between atoms: _471  and  _473
REMARK  195  A    between atoms: _473  and  _474
REMARK  196  A    between atoms: _473  and  _476
REMARK  197  A    between atoms: _476  and  _477
REMARK  198  A    between atoms: _480  and  _482
REMARK  199  A    between atoms: _482  and  _483
REMARK  200  A    between atoms: _482  and  _485
REMARK  201  A    between atoms: _485  and  _486
REMARK  202  A    between atoms: _490  and  _491
REMARK  203  A    between atoms: _496  and  _498
REMARK  204  A    between atoms: _498  and  _499
REMARK  205  A    between atoms: _498  and  _501
REMARK  206  A    between atoms: _504  and  _506
REMARK  207  A    between atoms: _506  and  _507
REMARK  208  A    between atoms: _506  and  _509
REMARK  209  A    between atoms: _509  and  _510
REMARK  210  A    between atoms: _515  and  _517
REMARK  211  A    between atoms: _517  and  _518
REMARK  212  A    between atoms: _517  and  _520
REMARK  213  A    between atoms: _520  and  _521
REMARK  214  A    between atoms: _524  and  _526
REMARK  215  A    between atoms: _526  and  _527
REMARK  216  A    between atoms: _529  and  _531
REMARK  217  A    between atoms: _531  and  _532
REMARK  218  A    between atoms: _531  and  _534
REMARK  219  A    between atoms: _534  and  _535
REMARK  220  A    between atoms: _535  and  _536
REMARK  221  A    between atoms: _536  and  _537
REMARK  222  A    between atoms: _546  and  _548
REMARK  223  A    between atoms: _548  and  _549
REMARK  224  A    between atoms: _548  and  _551
REMARK  225  A    between atoms: _551  and  _552
REMARK                            x       y       z     vdW  Elec       q    Type
REMARK                         _______ _______ _______ _____ _____    ______ ____
ROOT
ATOM      1  O   HOH     1       4.371  18.965  22.652  0.00  0.00    +0.000 OA
ENDROOT
TORSDOF 0
REMARK  Name = ../refined-set-2016/4dfg/4dfg_pocket.pdb
REMARK  225 active torsions:
REMARK  status: ('A' for Active; 'I' for Inactive)
REMARK    1  A    between atoms: _1  and  _3
REMARK    2  A    between atoms: _3  and  _4
REMARK    3  A    between atoms: _3  and  _6
REMARK    4  A    between atoms: _6  and  _7
REMARK    5  A    between atoms: _7  and  _8
REMARK    6  A    between atoms: _8  and  _9
REMARK    7  A    between atoms: _18  and  _20
REMARK    8  A    between atoms: _20  and  _21
REMARK    9  A    between atoms: _20  and  _23
REMARK   10  A    between atoms: _23  and  _24
REMARK   11  A    between atoms: _27  and  _29
REMARK   12  A    between atoms: _29  and  _30
REMARK   13  A    between atoms: _29  and  _32
REMARK   14  A    between atoms: _32  and  _33
REMARK   15  A    between atoms: _36  and  _38
REMARK   16  A    between atoms: _38  and  _39
REMARK   17  A    between atoms: _38  and  _41
REMARK   18  A    between atoms: _41  and  _42
REMARK   19  A    between atoms: _45  and  _47
REMARK   20  A    between atoms: _47  and  _48
REMARK   21  A    between atoms: _47  and  _50
REMARK   22  A    between atoms: _50  and  _51
REMARK   23  A    between atoms: _54  and  _56
REMARK   24  A    between atoms: _56  and  _57
REMARK   25  A    between atoms: _59  and  _61
REMARK   26  A    between atoms: _61  and  _62
REMARK   27  A    between atoms: _65  and  _67
REMARK   28  A    between atoms: _67  and  _68
REMARK   29  A    between atoms: _67  and  _70
REMARK   30  A    between atoms: _70  and  _71
REMARK   31  A    between atoms: _74  and  _76
REMARK   32  A    between atoms: _76  and  _77
REMARK   33  A    between atoms: _76  and  _79
REMARK   34  A    between atoms: _79  and  _80
REMARK   35  A    between atoms: _83  and  _85
REMARK   36  A    between atoms: _85  and  _86
REMARK   37  A    between atoms: _85  and  _88
REMARK   38  A    between atoms: _88  and  _89
REMARK   39  A    between atoms: _92  and  _94
REMARK   40  A    between atoms: _94  and  _95
REMARK   41  A    between atoms: _94  and  _97
REMARK   42  A    between atoms: _100  and  _102
REMARK   43  A    between atoms: _102  and  _103
REMARK   44  A    between atoms: _102  and  _105
REMARK   45  A    between atoms: _105  and  _106
REMARK   46  A    between atoms: _106  and  _107
REMARK   47  A    between atoms: _107  and  _108
REMARK   48  A    between atoms: _108  and  _109
REMARK   49  A    between atoms: _113  and  _115
REMARK   50  A    between atoms: _115  and  _116
REMARK   51  A    between atoms: _115  and  _118
REMARK   52  A    between atoms: _118  and  _119
REMARK   53  A    between atoms: _119  and  _120
REMARK   54  A    between atoms: _122  and  _124
REMARK   55  A    between atoms: _124  and  _125
REMARK   56  A    between atoms: _124  and  _127
REMARK   57  A    between atoms: _127  and  _128
REMARK   58  A    between atoms: _131  and  _133
REMARK   59  A    between atoms: _133  and  _134
REMARK   60  A    between atoms: _136  and  _138
REMARK   61  A    between atoms: _138  and  _139
REMARK   62  A    between atoms: _141  and  _143
REMARK   63  A    between atoms: _143  and  _144
REMARK   64  A    between atoms: _143  and  _146
REMARK   65  A    between atoms: _146  and  _147
REMARK   66  A    between atoms: _150  and  _152
REMARK   67  A    between atoms: _152  and  _153
REMARK   68  A    between atoms: _155  and  _157
REMARK   69  A    between atoms: _157  and  _158
REMARK   70  A    between atoms: _160  and  _162
REMARK   71  A    between atoms: _162  and  _163
REMARK   72  A    between atoms: _162  and  _165
REMARK   73  A    between atoms: _165  and  _166
REMARK   74  A    between atoms: _172  and  _174
REMARK   75  A    between atoms: _174  and  _175
REMARK   76  A    between atoms: _174  and  _177
REMARK   77  A    between atoms: _177  and  _178
REMARK   78  A    between atoms: _181  and  _183
REMARK   79  A    between atoms: _183  and  _184
REMARK   80  A    between atoms: _183  and  _186
REMARK   81  A    between atoms: _189  and  _191
REMARK   82  A    between atoms: _191  and  _192
REMARK   83  A    between atoms: _191  and  _194
REMARK   84  A    between atoms: _194  and  _195
REMARK   85  A    between atoms: _199  and  _200
REMARK   86  A    between atoms: _205  and  _207
REMARK   87  A    between atoms: _207  and  _208
REMARK   88  A    between atoms: _207  and  _210
REMARK   89  A    between atoms: _210  and  _211
REMARK   90  A    between atoms: _215  and  _216
REMARK   91  A    between atoms: _221  and  _223
REMARK   92  A    between atoms: _223  and  _224
REMARK   93  A    between atoms: _223  and  _226
REMARK   94  A    between atoms: _229  and  _231
REMARK   95  A    between atoms: _231  and  _232
REMARK   96  A    between atoms: _231  and  _234
REMARK   97  A    between atoms: _234  and  _235
REMARK   98  A    between atoms: _240  and  _242
REMARK   99  A    between atoms: _242  and  _243
REMARK  100  A    between atoms: _242  and  _245
REMARK  101  A    between atoms: _245  and  _246
REMARK  102  A    between atoms: _249  and  _251
REMARK  103  A    between atoms: _251  and  _252
REMARK  104  A    between atoms: _251  and  _254
REMARK  105  A    between atoms: _254  and  _255
REMARK  106  A    between atoms: _258  and  _260
REMARK  107  A    between atoms: _260  and  _261
REMARK  108  A    between atoms: _263  and  _265
REMARK  109  A    between atoms: _265  and  _266
REMARK  110  A    between atoms: _265  and  _268
REMARK  111  A    between atoms: _269  and  _270
REMARK  112  A    between atoms: _270  and  _271
REMARK  113  A    between atoms: _280  and  _282
REMARK  114  A    between atoms: _282  and  _283
REMARK  115  A    between atoms: _282  and  _285
REMARK  116  A    between atoms: _285  and  _286
REMARK  117  A    between atoms: _291  and  _293
REMARK  118  A    between atoms: _293  and  _294
REMARK  119  A    between atoms: _293  and  _296
REMARK  120  A    between atoms: _296  and  _297
REMARK  121  A    between atoms: _297  and  _298
REMARK  122  A    between atoms: _298  and  _299
REMARK  123  A    between atoms: _308  and  _310
REMARK  124  A    between atoms: _310  and  _311
REMARK  125  A    between atoms: _310  and  _313
REMARK  126  A    between atoms: _313  and  _314
REMARK  127  A    between atoms: _317  and  _319
REMARK  128  A    between atoms: _319  and  _320
REMARK  129  A    between atoms: _319  and  _322
REMARK  130  A    between atoms: _322  and  _323
REMARK  131  A    between atoms: _326  and  _328
REMARK  132  A    between atoms: _328  and  _329
REMARK  133  A    between atoms: _328  and  _331
REMARK  134  A    between atoms: _331  and  _332
REMARK  135  A    between atoms: _335  and  _337
REMARK  136  A    between atoms: _337  and  _338
REMARK  137  A    between atoms: _337  and  _340
REMARK  138  A    between atoms: _340  and  _341
REMARK  139  A    between atoms: _344  and  _346
REMARK  140  A    between atoms: _346  and  _347
REMARK  141  A    between atoms: _349  and  _351
REMARK  142  A    between atoms: _351  and  _352
REMARK  143  A    between atoms: _355  and  _357
REMARK  144  A    between atoms: _357  and  _358
REMARK  145  A    between atoms: _357  and  _360
REMARK  146  A    between atoms: _360  and  _361
REMARK  147  A    between atoms: _364  and  _366
REMARK  148  A    between atoms: _366  and  _367
REMARK  149  A    between atoms: _366  and  _369
REMARK  150  A    between atoms: _369  and  _370
REMARK  151  A    between atoms: _373  and  _375
REMARK  152  A    between atoms: _375  and  _376
REMARK  153  A    between atoms: _375  and  _378
REMARK  154  A    between atoms: _378  and  _379
REMARK  155  A    between atoms: _382  and  _384
REMARK  156  A    between atoms: _384  and  _385
REMARK  157  A    between atoms: _384  and  _387
REMARK  158  A    between atoms: _390  and  _392
REMARK  159  A    between atoms: _392  and  _393
REMARK  160  A    between atoms: _392  and  _395
REMARK  161  A    between atoms: _395  and  _396
REMARK  162  A    between atoms: _396  and  _397
REMARK  163  A    between atoms: _397  and  _398
REMARK  164  A    between atoms: _398  and  _399
REMARK  165  A    between atoms: _403  and  _405
REMARK  166  A    between atoms: _405  and  _406
REMARK  167  A    between atoms: _405  and  _408
REMARK  168  A    between atoms: _408  and  _409
REMARK  169  A    between atoms: _409  and  _410
REMARK  170  A    between atoms: _412  and  _414
REMARK  171  A    between atoms: _414  and  _415
REMARK  172  A    between atoms: _414  and  _417
REMARK  173  A    between atoms: _417  and  _418
REMARK  174  A    between atoms: _421  and  _423
REMARK  175  A    between atoms: _423  and  _424
REMARK  176  A    between atoms: _426  and  _428
REMARK  177  A    between atoms: _428  and  _429
REMARK  178  A    between atoms: _431  and  _433
REMARK  179  A    between atoms: _433  and  _434
REMARK  180  A    between atoms: _433  and  _436
REMARK  181  A    between atoms: _436  and  _437
REMARK  182  A    between atoms: _440  and  _442
REMARK  183  A    between atoms: _442  and  _443
REMARK  184  A    between atoms: _445  and  _447
REMARK  185  A    between atoms: _447  and  _448
REMARK  186  A    between atoms: _450  and  _452
REMARK  187  A    between atoms: _452  and  _453
REMARK  188  A    between atoms: _452  and  _455
REMARK  189  A    between atoms: _455  and  _456
REMARK  190  A    between atoms: _462  and  _464
REMARK  191  A    between atoms: _464  and  _465
REMARK  192  A    between atoms: _464  and  _467
REMARK  193  A    between atoms: _467  and  _468
REMARK  194  A    between atoms: _471  and  _473
REMARK  195  A    between atoms: _473  and  _474
REMARK  196  A    between atoms: _473  and  _476
REMARK  197  A    between atoms: _476  and  _477
REMARK  198  A    between atoms: _480  and  _482
REMARK  199  A    between atoms: _482  and  _483
REMARK  200  A    between atoms: _482  and  _485
REMARK  201  A    between atoms: _485  and  _486
REMARK  202  A    between atoms: _490  and  _491
REMARK  203  A    between atoms: _496  and  _498
REMARK  204  A    between atoms: _498  and  _499
REMARK  205  A    between atoms: _498  and  _501
REMARK  206  A    between atoms: _504  and  _506
REMARK  207  A    between atoms: _506  and  _507
REMARK  208  A    between atoms: _506  and  _509
REMARK  209  A    between atoms: _509  and  _510
REMARK  210  A    between atoms: _515  and  _517
REMARK  211  A    between atoms: _517  and  _518
REMARK  212  A    between atoms: _517  and  _520
REMARK  213  A    between atoms: _520  and  _521
REMARK  214  A    between atoms: _524  and  _526
REMARK  215  A    between atoms: _526  and  _527
REMARK  216  A    between atoms: _529  and  _531
REMARK  217  A    between atoms: _531  and  _532
REMARK  218  A    between atoms: _531  and  _534
REMARK  219  A    between atoms: _534  and  _535
REMARK  220  A    between atoms: _535  and  _536
REMARK  221  A    between atoms: _536  and  _537
REMARK  222  A    between atoms: _546  and  _548
REMARK  223  A    between atoms: _548  and  _549
REMARK  224  A    between atoms: _548  and  _551
REMARK  225  A    between atoms: _551  and  _552
REMARK                            x       y       z     vdW  Elec       q    Type
REMARK                         _______ _______ _______ _____ _____    ______ ____
ROOT
ATOM      1  O   HOH     1       8.855  21.316  13.818  0.00  0.00    +0.000 OA
ENDROOT
TORSDOF 0
REMARK  Name = ../refined-set-2016/4dfg/4dfg_pocket.pdb
REMARK  225 active torsions:
REMARK  status: ('A' for Active; 'I' for Inactive)
REMARK    1  A    between atoms: _1  and  _3
REMARK    2  A    between atoms: _3  and  _4
REMARK    3  A    between atoms: _3  and  _6
REMARK    4  A    between atoms: _6  and  _7
REMARK    5  A    between atoms: _7  and  _8
REMARK    6  A    between atoms: _8  and  _9
REMARK    7  A    between atoms: _18  and  _20
REMARK    8  A    between atoms: _20  and  _21
REMARK    9  A    between atoms: _20  and  _23
REMARK   10  A    between atoms: _23  and  _24
REMARK   11  A    between atoms: _27  and  _29
REMARK   12  A    between atoms: _29  and  _30
REMARK   13  A    between atoms: _29  and  _32
REMARK   14  A    between atoms: _32  and  _33
REMARK   15  A    between atoms: _36  and  _38
REMARK   16  A    between atoms: _38  and  _39
REMARK   17  A    between atoms: _38  and  _41
REMARK   18  A    between atoms: _41  and  _42
REMARK   19  A    between atoms: _45  and  _47
REMARK   20  A    between atoms: _47  and  _48
REMARK   21  A    between atoms: _47  and  _50
REMARK   22  A    between atoms: _50  and  _51
REMARK   23  A    between atoms: _54  and  _56
REMARK   24  A    between atoms: _56  and  _57
REMARK   25  A    between atoms: _59  and  _61
REMARK   26  A    between atoms: _61  and  _62
REMARK   27  A    between atoms: _65  and  _67
REMARK   28  A    between atoms: _67  and  _68
REMARK   29  A    between atoms: _67  and  _70
REMARK   30  A    between atoms: _70  and  _71
REMARK   31  A    between atoms: _74  and  _76
REMARK   32  A    between atoms: _76  and  _77
REMARK   33  A    between atoms: _76  and  _79
REMARK   34  A    between atoms: _79  and  _80
REMARK   35  A    between atoms: _83  and  _85
REMARK   36  A    between atoms: _85  and  _86
REMARK   37  A    between atoms: _85  and  _88
REMARK   38  A    between atoms: _88  and  _89
REMARK   39  A    between atoms: _92  and  _94
REMARK   40  A    between atoms: _94  and  _95
REMARK   41  A    between atoms: _94  and  _97
REMARK   42  A    between atoms: _100  and  _102
REMARK   43  A    between atoms: _102  and  _103
REMARK   44  A    between atoms: _102  and  _105
REMARK   45  A    between atoms: _105  and  _106
REMARK   46  A    between atoms: _106  and  _107
REMARK   47  A    between atoms: _107  and  _108
REMARK   48  A    between atoms: _108  and  _109
REMARK   49  A    between atoms: _113  and  _115
REMARK   50  A    between atoms: _115  and  _116
REMARK   51  A    between atoms: _115  and  _118
REMARK   52  A    between atoms: _118  and  _119
REMARK   53  A    between atoms: _119  and  _120
REMARK   54  A    between atoms: _122  and  _124
REMARK   55  A    between atoms: _124  and  _125
REMARK   56  A    between atoms: _124  and  _127
REMARK   57  A    between atoms: _127  and  _128
REMARK   58  A    between atoms: _131  and  _133
REMARK   59  A    between atoms: _133  and  _134
REMARK   60  A    between atoms: _136  and  _138
REMARK   61  A    between atoms: _138  and  _139
REMARK   62  A    between atoms: _141  and  _143
REMARK   63  A    between atoms: _143  and  _144
REMARK   64  A    between atoms: _143  and  _146
REMARK   65  A    between atoms: _146  and  _147
REMARK   66  A    between atoms: _150  and  _152
REMARK   67  A    between atoms: _152  and  _153
REMARK   68  A    between atoms: _155  and  _157
REMARK   69  A    between atoms: _157  and  _158
REMARK   70  A    between atoms: _160  and  _162
REMARK   71  A    between atoms: _162  and  _163
REMARK   72  A    between atoms: _162  and  _165
REMARK   73  A    between atoms: _165  and  _166
REMARK   74  A    between atoms: _172  and  _174
REMARK   75  A    between atoms: _174  and  _175
REMARK   76  A    between atoms: _174  and  _177
REMARK   77  A    between atoms: _177  and  _178
REMARK   78  A    between atoms: _181  and  _183
REMARK   79  A    between atoms: _183  and  _184
REMARK   80  A    between atoms: _183  and  _186
REMARK   81  A    between atoms: _189  and  _191
REMARK   82  A    between atoms: _191  and  _192
REMARK   83  A    between atoms: _191  and  _194
REMARK   84  A    between atoms: _194  and  _195
REMARK   85  A    between atoms: _199  and  _200
REMARK   86  A    between atoms: _205  and  _207
REMARK   87  A    between atoms: _207  and  _208
REMARK   88  A    between atoms: _207  and  _210
REMARK   89  A    between atoms: _210  and  _211
REMARK   90  A    between atoms: _215  and  _216
REMARK   91  A    between atoms: _221  and  _223
REMARK   92  A    between atoms: _223  and  _224
REMARK   93  A    between atoms: _223  and  _226
REMARK   94  A    between atoms: _229  and  _231
REMARK   95  A    between atoms: _231  and  _232
REMARK   96  A    between atoms: _231  and  _234
REMARK   97  A    between atoms: _234  and  _235
REMARK   98  A    between atoms: _240  and  _242
REMARK   99  A    between atoms: _242  and  _243
REMARK  100  A    between atoms: _242  and  _245
REMARK  101  A    between atoms: _245  and  _246
REMARK  102  A    between atoms: _249  and  _251
REMARK  103  A    between atoms: _251  and  _252
REMARK  104  A    between atoms: _251  and  _254
REMARK  105  A    between atoms: _254  and  _255
REMARK  106  A    between atoms: _258  and  _260
REMARK  107  A    between atoms: _260  and  _261
REMARK  108  A    between atoms: _263  and  _265
REMARK  109  A    between atoms: _265  and  _266
REMARK  110  A    between atoms: _265  and  _268
REMARK  111  A    between atoms: _269  and  _270
REMARK  112  A    between atoms: _270  and  _271
REMARK  113  A    between atoms: _280  and  _282
REMARK  114  A    between atoms: _282  and  _283
REMARK  115  A    between atoms: _282  and  _285
REMARK  116  A    between atoms: _285  and  _286
REMARK  117  A    between atoms: _291  and  _293
REMARK  118  A    between atoms: _293  and  _294
REMARK  119  A    between atoms: _293  and  _296
REMARK  120  A    between atoms: _296  and  _297
REMARK  121  A    between atoms: _297  and  _298
REMARK  122  A    between atoms: _298  and  _299
REMARK  123  A    between atoms: _308  and  _310
REMARK  124  A    between atoms: _310  and  _311
REMARK  125  A    between atoms: _310  and  _313
REMARK  126  A    between atoms: _313  and  _314
REMARK  127  A    between atoms: _317  and  _319
REMARK  128  A    between atoms: _319  and  _320
REMARK  129  A    between atoms: _319  and  _322
REMARK  130  A    between atoms: _322  and  _323
REMARK  131  A    between atoms: _326  and  _328
REMARK  132  A    between atoms: _328  and  _329
REMARK  133  A    between atoms: _328  and  _331
REMARK  134  A    between atoms: _331  and  _332
REMARK  135  A    between atoms: _335  and  _337
REMARK  136  A    between atoms: _337  and  _338
REMARK  137  A    between atoms: _337  and  _340
REMARK  138  A    between atoms: _340  and  _341
REMARK  139  A    between atoms: _344  and  _346
REMARK  140  A    between atoms: _346  and  _347
REMARK  141  A    between atoms: _349  and  _351
REMARK  142  A    between atoms: _351  and  _352
REMARK  143  A    between atoms: _355  and  _357
REMARK  144  A    between atoms: _357  and  _358
REMARK  145  A    between atoms: _357  and  _360
REMARK  146  A    between atoms: _360  and  _361
REMARK  147  A    between atoms: _364  and  _366
REMARK  148  A    between atoms: _366  and  _367
REMARK  149  A    between atoms: _366  and  _369
REMARK  150  A    between atoms: _369  and  _370
REMARK  151  A    between atoms: _373  and  _375
REMARK  152  A    between atoms: _375  and  _376
REMARK  153  A    between atoms: _375  and  _378
REMARK  154  A    between atoms: _378  and  _379
REMARK  155  A    between atoms: _382  and  _384
REMARK  156  A    between atoms: _384  and  _385
REMARK  157  A    between atoms: _384  and  _387
REMARK  158  A    between atoms: _390  and  _392
REMARK  159  A    between atoms: _392  and  _393
REMARK  160  A    between atoms: _392  and  _395
REMARK  161  A    between atoms: _395  and  _396
REMARK  162  A    between atoms: _396  and  _397
REMARK  163  A    between atoms: _397  and  _398
REMARK  164  A    between atoms: _398  and  _399
REMARK  165  A    between atoms: _403  and  _405
REMARK  166  A    between atoms: _405  and  _406
REMARK  167  A    between atoms: _405  and  _408
REMARK  168  A    between atoms: _408  and  _409
REMARK  169  A    between atoms: _409  and  _410
REMARK  170  A    between atoms: _412  and  _414
REMARK  171  A    between atoms: _414  and  _415
REMARK  172  A    between atoms: _414  and  _417
REMARK  173  A    between atoms: _417  and  _418
REMARK  174  A    between atoms: _421  and  _423
REMARK  175  A    between atoms: _423  and  _424
REMARK  176  A    between atoms: _426  and  _428
REMARK  177  A    between atoms: _428  and  _429
REMARK  178  A    between atoms: _431  and  _433
REMARK  179  A    between atoms: _433  and  _434
REMARK  180  A    between atoms: _433  and  _436
REMARK  181  A    between atoms: _436  and  _437
REMARK  182  A    between atoms: _440  and  _442
REMARK  183  A    between atoms: _442  and  _443
REMARK  184  A    between atoms: _445  and  _447
REMARK  185  A    between atoms: _447  and  _448
REMARK  186  A    between atoms: _450  and  _452
REMARK  187  A    between atoms: _452  and  _453
REMARK  188  A    between atoms: _452  and  _455
REMARK  189  A    between atoms: _455  and  _456
REMARK  190  A    between atoms: _462  and  _464
REMARK  191  A    between atoms: _464  and  _465
REMARK  192  A    between atoms: _464  and  _467
REMARK  193  A    between atoms: _467  and  _468
REMARK  194  A    between atoms: _471  and  _473
REMARK  195  A    between atoms: _473  and  _474
REMARK  196  A    between atoms: _473  and  _476
REMARK  197  A    between atoms: _476  and  _477
REMARK  198  A    between atoms: _480  and  _482
REMARK  199  A    between atoms: _482  and  _483
REMARK  200  A    between atoms: _482  and  _485
REMARK  201  A    between atoms: _485  and  _486
REMARK  202  A    between atoms: _490  and  _491
REMARK  203  A    between atoms: _496  and  _498
REMARK  204  A    between atoms: _498  and  _499
REMARK  205  A    between atoms: _498  and  _501
REMARK  206  A    between atoms: _504  and  _506
REMARK  207  A    between atoms: _506  and  _507
REMARK  208  A    between atoms: _506  and  _509
REMARK  209  A    between atoms: _509  and  _510
REMARK  210  A    between atoms: _515  and  _517
REMARK  211  A    between atoms: _517  and  _518
REMARK  212  A    between atoms: _517  and  _520
REMARK  213  A    between atoms: _520  and  _521
REMARK  214  A    between atoms: _524  and  _526
REMARK  215  A    between atoms: _526  and  _527
REMARK  216  A    between atoms: _529  and  _531
REMARK  217  A    between atoms: _531  and  _532
REMARK  218  A    between atoms: _531  and  _534
REMARK  219  A    between atoms: _534  and  _535
REMARK  220  A    between atoms: _535  and  _536
REMARK  221  A    between atoms: _536  and  _537
REMARK  222  A    between atoms: _546  and  _548
REMARK  223  A    between atoms: _548  and  _549
REMARK  224  A    between atoms: _548  and  _551
REMARK  225  A    between atoms: _551  and  _552
REMARK                            x       y       z     vdW  Elec       q    Type
REMARK                         _______ _______ _______ _____ _____    ______ ____
ROOT
ATOM      1  O   HOH     1       7.324  15.693  18.127  0.00  0.00    +0.000 OA
ENDROOT
TORSDOF 0
REMARK  Name = ../refined-set-2016/4dfg/4dfg_pocket.pdb
REMARK  225 active torsions:
REMARK  status: ('A' for Active; 'I' for Inactive)
REMARK    1  A    between atoms: _1  and  _3
REMARK    2  A    between atoms: _3  and  _4
REMARK    3  A    between atoms: _3  and  _6
REMARK    4  A    between atoms: _6  and  _7
REMARK    5  A    between atoms: _7  and  _8
REMARK    6  A    between atoms: _8  and  _9
REMARK    7  A    between atoms: _18  and  _20
REMARK    8  A    between atoms: _20  and  _21
REMARK    9  A    between atoms: _20  and  _23
REMARK   10  A    between atoms: _23  and  _24
REMARK   11  A    between atoms: _27  and  _29
REMARK   12  A    between atoms: _29  and  _30
REMARK   13  A    between atoms: _29  and  _32
REMARK   14  A    between atoms: _32  and  _33
REMARK   15  A    between atoms: _36  and  _38
REMARK   16  A    between atoms: _38  and  _39
REMARK   17  A    between atoms: _38  and  _41
REMARK   18  A    between atoms: _41  and  _42
REMARK   19  A    between atoms: _45  and  _47
REMARK   20  A    between atoms: _47  and  _48
REMARK   21  A    between atoms: _47  and  _50
REMARK   22  A    between atoms: _50  and  _51
REMARK   23  A    between atoms: _54  and  _56
REMARK   24  A    between atoms: _56  and  _57
REMARK   25  A    between atoms: _59  and  _61
REMARK   26  A    between atoms: _61  and  _62
REMARK   27  A    between atoms: _65  and  _67
REMARK   28  A    between atoms: _67  and  _68
REMARK   29  A    between atoms: _67  and  _70
REMARK   30  A    between atoms: _70  and  _71
REMARK   31  A    between atoms: _74  and  _76
REMARK   32  A    between atoms: _76  and  _77
REMARK   33  A    between atoms: _76  and  _79
REMARK   34  A    between atoms: _79  and  _80
REMARK   35  A    between atoms: _83  and  _85
REMARK   36  A    between atoms: _85  and  _86
REMARK   37  A    between atoms: _85  and  _88
REMARK   38  A    between atoms: _88  and  _89
REMARK   39  A    between atoms: _92  and  _94
REMARK   40  A    between atoms: _94  and  _95
REMARK   41  A    between atoms: _94  and  _97
REMARK   42  A    between atoms: _100  and  _102
REMARK   43  A    between atoms: _102  and  _103
REMARK   44  A    between atoms: _102  and  _105
REMARK   45  A    between atoms: _105  and  _106
REMARK   46  A    between atoms: _106  and  _107
REMARK   47  A    between atoms: _107  and  _108
REMARK   48  A    between atoms: _108  and  _109
REMARK   49  A    between atoms: _113  and  _115
REMARK   50  A    between atoms: _115  and  _116
REMARK   51  A    between atoms: _115  and  _118
REMARK   52  A    between atoms: _118  and  _119
REMARK   53  A    between atoms: _119  and  _120
REMARK   54  A    between atoms: _122  and  _124
REMARK   55  A    between atoms: _124  and  _125
REMARK   56  A    between atoms: _124  and  _127
REMARK   57  A    between atoms: _127  and  _128
REMARK   58  A    between atoms: _131  and  _133
REMARK   59  A    between atoms: _133  and  _134
REMARK   60  A    between atoms: _136  and  _138
REMARK   61  A    between atoms: _138  and  _139
REMARK   62  A    between atoms: _141  and  _143
REMARK   63  A    between atoms: _143  and  _144
REMARK   64  A    between atoms: _143  and  _146
REMARK   65  A    between atoms: _146  and  _147
REMARK   66  A    between atoms: _150  and  _152
REMARK   67  A    between atoms: _152  and  _153
REMARK   68  A    between atoms: _155  and  _157
REMARK   69  A    between atoms: _157  and  _158
REMARK   70  A    between atoms: _160  and  _162
REMARK   71  A    between atoms: _162  and  _163
REMARK   72  A    between atoms: _162  and  _165
REMARK   73  A    between atoms: _165  and  _166
REMARK   74  A    between atoms: _172  and  _174
REMARK   75  A    between atoms: _174  and  _175
REMARK   76  A    between atoms: _174  and  _177
REMARK   77  A    between atoms: _177  and  _178
REMARK   78  A    between atoms: _181  and  _183
REMARK   79  A    between atoms: _183  and  _184
REMARK   80  A    between atoms: _183  and  _186
REMARK   81  A    between atoms: _189  and  _191
REMARK   82  A    between atoms: _191  and  _192
REMARK   83  A    between atoms: _191  and  _194
REMARK   84  A    between atoms: _194  and  _195
REMARK   85  A    between atoms: _199  and  _200
REMARK   86  A    between atoms: _205  and  _207
REMARK   87  A    between atoms: _207  and  _208
REMARK   88  A    between atoms: _207  and  _210
REMARK   89  A    between atoms: _210  and  _211
REMARK   90  A    between atoms: _215  and  _216
REMARK   91  A    between atoms: _221  and  _223
REMARK   92  A    between atoms: _223  and  _224
REMARK   93  A    between atoms: _223  and  _226
REMARK   94  A    between atoms: _229  and  _231
REMARK   95  A    between atoms: _231  and  _232
REMARK   96  A    between atoms: _231  and  _234
REMARK   97  A    between atoms: _234  and  _235
REMARK   98  A    between atoms: _240  and  _242
REMARK   99  A    between atoms: _242  and  _243
REMARK  100  A    between atoms: _242  and  _245
REMARK  101  A    between atoms: _245  and  _246
REMARK  102  A    between atoms: _249  and  _251
REMARK  103  A    between atoms: _251  and  _252
REMARK  104  A    between atoms: _251  and  _254
REMARK  105  A    between atoms: _254  and  _255
REMARK  106  A    between atoms: _258  and  _260
REMARK  107  A    between atoms: _260  and  _261
REMARK  108  A    between atoms: _263  and  _265
REMARK  109  A    between atoms: _265  and  _266
REMARK  110  A    between atoms: _265  and  _268
REMARK  111  A    between atoms: _269  and  _270
REMARK  112  A    between atoms: _270  and  _271
REMARK  113  A    between atoms: _280  and  _282
REMARK  114  A    between atoms: _282  and  _283
REMARK  115  A    between atoms: _282  and  _285
REMARK  116  A    between atoms: _285  and  _286
REMARK  117  A    between atoms: _291  and  _293
REMARK  118  A    between atoms: _293  and  _294
REMARK  119  A    between atoms: _293  and  _296
REMARK  120  A    between atoms: _296  and  _297
REMARK  121  A    between atoms: _297  and  _298
REMARK  122  A    between atoms: _298  and  _299
REMARK  123  A    between atoms: _308  and  _310
REMARK  124  A    between atoms: _310  and  _311
REMARK  125  A    between atoms: _310  and  _313
REMARK  126  A    between atoms: _313  and  _314
REMARK  127  A    between atoms: _317  and  _319
REMARK  128  A    between atoms: _319  and  _320
REMARK  129  A    between atoms: _319  and  _322
REMARK  130  A    between atoms: _322  and  _323
REMARK  131  A    between atoms: _326  and  _328
REMARK  132  A    between atoms: _328  and  _329
REMARK  133  A    between atoms: _328  and  _331
REMARK  134  A    between atoms: _331  and  _332
REMARK  135  A    between atoms: _335  and  _337
REMARK  136  A    between atoms: _337  and  _338
REMARK  137  A    between atoms: _337  and  _340
REMARK  138  A    between atoms: _340  and  _341
REMARK  139  A    between atoms: _344  and  _346
REMARK  140  A    between atoms: _346  and  _347
REMARK  141  A    between atoms: _349  and  _351
REMARK  142  A    between atoms: _351  and  _352
REMARK  143  A    between atoms: _355  and  _357
REMARK  144  A    between atoms: _357  and  _358
REMARK  145  A    between atoms: _357  and  _360
REMARK  146  A    between atoms: _360  and  _361
REMARK  147  A    between atoms: _364  and  _366
REMARK  148  A    between atoms: _366  and  _367
REMARK  149  A    between atoms: _366  and  _369
REMARK  150  A    between atoms: _369  and  _370
REMARK  151  A    between atoms: _373  and  _375
REMARK  152  A    between atoms: _375  and  _376
REMARK  153  A    between atoms: _375  and  _378
REMARK  154  A    between atoms: _378  and  _379
REMARK  155  A    between atoms: _382  and  _384
REMARK  156  A    between atoms: _384  and  _385
REMARK  157  A    between atoms: _384  and  _387
REMARK  158  A    between atoms: _390  and  _392
REMARK  159  A    between atoms: _392  and  _393
REMARK  160  A    between atoms: _392  and  _395
REMARK  161  A    between atoms: _395  and  _396
REMARK  162  A    between atoms: _396  and  _397
REMARK  163  A    between atoms: _397  and  _398
REMARK  164  A    between atoms: _398  and  _399
REMARK  165  A    between atoms: _403  and  _405
REMARK  166  A    between atoms: _405  and  _406
REMARK  167  A    between atoms: _405  and  _408
REMARK  168  A    between atoms: _408  and  _409
REMARK  169  A    between atoms: _409  and  _410
REMARK  170  A    between atoms: _412  and  _414
REMARK  171  A    between atoms: _414  and  _415
REMARK  172  A    between atoms: _414  and  _417
REMARK  173  A    between atoms: _417  and  _418
REMARK  174  A    between atoms: _421  and  _423
REMARK  175  A    between atoms: _423  and  _424
REMARK  176  A    between atoms: _426  and  _428
REMARK  177  A    between atoms: _428  and  _429
REMARK  178  A    between atoms: _431  and  _433
REMARK  179  A    between atoms: _433  and  _434
REMARK  180  A    between atoms: _433  and  _436
REMARK  181  A    between atoms: _436  and  _437
REMARK  182  A    between atoms: _440  and  _442
REMARK  183  A    between atoms: _442  and  _443
REMARK  184  A    between atoms: _445  and  _447
REMARK  185  A    between atoms: _447  and  _448
REMARK  186  A    between atoms: _450  and  _452
REMARK  187  A    between atoms: _452  and  _453
REMARK  188  A    between atoms: _452  and  _455
REMARK  189  A    between atoms: _455  and  _456
REMARK  190  A    between atoms: _462  and  _464
REMARK  191  A    between atoms: _464  and  _465
REMARK  192  A    between atoms: _464  and  _467
REMARK  193  A    between atoms: _467  and  _468
REMARK  194  A    between atoms: _471  and  _473
REMARK  195  A    between atoms: _473  and  _474
REMARK  196  A    between atoms: _473  and  _476
REMARK  197  A    between atoms: _476  and  _477
REMARK  198  A    between atoms: _480  and  _482
REMARK  199  A    between atoms: _482  and  _483
REMARK  200  A    between atoms: _482  and  _485
REMARK  201  A    between atoms: _485  and  _486
REMARK  202  A    between atoms: _490  and  _491
REMARK  203  A    between atoms: _496  and  _498
REMARK  204  A    between atoms: _498  and  _499
REMARK  205  A    between atoms: _498  and  _501
REMARK  206  A    between atoms: _504  and  _506
REMARK  207  A    between atoms: _506  and  _507
REMARK  208  A    between atoms: _506  and  _509
REMARK  209  A    between atoms: _509  and  _510
REMARK  210  A    between atoms: _515  and  _517
REMARK  211  A    between atoms: _517  and  _518
REMARK  212  A    between atoms: _517  and  _520
REMARK  213  A    between atoms: _520  and  _521
REMARK  214  A    between atoms: _524  and  _526
REMARK  215  A    between atoms: _526  and  _527
REMARK  216  A    between atoms: _529  and  _531
REMARK  217  A    between atoms: _531  and  _532
REMARK  218  A    between atoms: _531  and  _534
REMARK  219  A    between atoms: _534  and  _535
REMARK  220  A    between atoms: _535  and  _536
REMARK  221  A    between atoms: _536  and  _537
REMARK  222  A    between atoms: _546  and  _548
REMARK  223  A    between atoms: _548  and  _549
REMARK  224  A    between atoms: _548  and  _551
REMARK  225  A    between atoms: _551  and  _552
REMARK                            x       y       z     vdW  Elec       q    Type
REMARK                         _______ _______ _______ _____ _____    ______ ____
ROOT
ATOM      1  O   HOH     1       7.273  22.395  11.726  0.00  0.00    +0.000 OA
ENDROOT
TORSDOF 0
REMARK  Name = ../refined-set-2016/4dfg/4dfg_pocket.pdb
REMARK  225 active torsions:
REMARK  status: ('A' for Active; 'I' for Inactive)
REMARK    1  A    between atoms: _1  and  _3
REMARK    2  A    between atoms: _3  and  _4
REMARK    3  A    between atoms: _3  and  _6
REMARK    4  A    between atoms: _6  and  _7
REMARK    5  A    between atoms: _7  and  _8
REMARK    6  A    between atoms: _8  and  _9
REMARK    7  A    between atoms: _18  and  _20
REMARK    8  A    between atoms: _20  and  _21
REMARK    9  A    between atoms: _20  and  _23
REMARK   10  A    between atoms: _23  and  _24
REMARK   11  A    between atoms: _27  and  _29
REMARK   12  A    between atoms: _29  and  _30
REMARK   13  A    between atoms: _29  and  _32
REMARK   14  A    between atoms: _32  and  _33
REMARK   15  A    between atoms: _36  and  _38
REMARK   16  A    between atoms: _38  and  _39
REMARK   17  A    between atoms: _38  and  _41
REMARK   18  A    between atoms: _41  and  _42
REMARK   19  A    between atoms: _45  and  _47
REMARK   20  A    between atoms: _47  and  _48
REMARK   21  A    between atoms: _47  and  _50
REMARK   22  A    between atoms: _50  and  _51
REMARK   23  A    between atoms: _54  and  _56
REMARK   24  A    between atoms: _56  and  _57
REMARK   25  A    between atoms: _59  and  _61
REMARK   26  A    between atoms: _61  and  _62
REMARK   27  A    between atoms: _65  and  _67
REMARK   28  A    between atoms: _67  and  _68
REMARK   29  A    between atoms: _67  and  _70
REMARK   30  A    between atoms: _70  and  _71
REMARK   31  A    between atoms: _74  and  _76
REMARK   32  A    between atoms: _76  and  _77
REMARK   33  A    between atoms: _76  and  _79
REMARK   34  A    between atoms: _79  and  _80
REMARK   35  A    between atoms: _83  and  _85
REMARK   36  A    between atoms: _85  and  _86
REMARK   37  A    between atoms: _85  and  _88
REMARK   38  A    between atoms: _88  and  _89
REMARK   39  A    between atoms: _92  and  _94
REMARK   40  A    between atoms: _94  and  _95
REMARK   41  A    between atoms: _94  and  _97
REMARK   42  A    between atoms: _100  and  _102
REMARK   43  A    between atoms: _102  and  _103
REMARK   44  A    between atoms: _102  and  _105
REMARK   45  A    between atoms: _105  and  _106
REMARK   46  A    between atoms: _106  and  _107
REMARK   47  A    between atoms: _107  and  _108
REMARK   48  A    between atoms: _108  and  _109
REMARK   49  A    between atoms: _113  and  _115
REMARK   50  A    between atoms: _115  and  _116
REMARK   51  A    between atoms: _115  and  _118
REMARK   52  A    between atoms: _118  and  _119
REMARK   53  A    between atoms: _119  and  _120
REMARK   54  A    between atoms: _122  and  _124
REMARK   55  A    between atoms: _124  and  _125
REMARK   56  A    between atoms: _124  and  _127
REMARK   57  A    between atoms: _127  and  _128
REMARK   58  A    between atoms: _131  and  _133
REMARK   59  A    between atoms: _133  and  _134
REMARK   60  A    between atoms: _136  and  _138
REMARK   61  A    between atoms: _138  and  _139
REMARK   62  A    between atoms: _141  and  _143
REMARK   63  A    between atoms: _143  and  _144
REMARK   64  A    between atoms: _143  and  _146
REMARK   65  A    between atoms: _146  and  _147
REMARK   66  A    between atoms: _150  and  _152
REMARK   67  A    between atoms: _152  and  _153
REMARK   68  A    between atoms: _155  and  _157
REMARK   69  A    between atoms: _157  and  _158
REMARK   70  A    between atoms: _160  and  _162
REMARK   71  A    between atoms: _162  and  _163
REMARK   72  A    between atoms: _162  and  _165
REMARK   73  A    between atoms: _165  and  _166
REMARK   74  A    between atoms: _172  and  _174
REMARK   75  A    between atoms: _174  and  _175
REMARK   76  A    between atoms: _174  and  _177
REMARK   77  A    between atoms: _177  and  _178
REMARK   78  A    between atoms: _181  and  _183
REMARK   79  A    between atoms: _183  and  _184
REMARK   80  A    between atoms: _183  and  _186
REMARK   81  A    between atoms: _189  and  _191
REMARK   82  A    between atoms: _191  and  _192
REMARK   83  A    between atoms: _191  and  _194
REMARK   84  A    between atoms: _194  and  _195
REMARK   85  A    between atoms: _199  and  _200
REMARK   86  A    between atoms: _205  and  _207
REMARK   87  A    between atoms: _207  and  _208
REMARK   88  A    between atoms: _207  and  _210
REMARK   89  A    between atoms: _210  and  _211
REMARK   90  A    between atoms: _215  and  _216
REMARK   91  A    between atoms: _221  and  _223
REMARK   92  A    between atoms: _223  and  _224
REMARK   93  A    between atoms: _223  and  _226
REMARK   94  A    between atoms: _229  and  _231
REMARK   95  A    between atoms: _231  and  _232
REMARK   96  A    between atoms: _231  and  _234
REMARK   97  A    between atoms: _234  and  _235
REMARK   98  A    between atoms: _240  and  _242
REMARK   99  A    between atoms: _242  and  _243
REMARK  100  A    between atoms: _242  and  _245
REMARK  101  A    between atoms: _245  and  _246
REMARK  102  A    between atoms: _249  and  _251
REMARK  103  A    between atoms: _251  and  _252
REMARK  104  A    between atoms: _251  and  _254
REMARK  105  A    between atoms: _254  and  _255
REMARK  106  A    between atoms: _258  and  _260
REMARK  107  A    between atoms: _260  and  _261
REMARK  108  A    between atoms: _263  and  _265
REMARK  109  A    between atoms: _265  and  _266
REMARK  110  A    between atoms: _265  and  _268
REMARK  111  A    between atoms: _269  and  _270
REMARK  112  A    between atoms: _270  and  _271
REMARK  113  A    between atoms: _280  and  _282
REMARK  114  A    between atoms: _282  and  _283
REMARK  115  A    between atoms: _282  and  _285
REMARK  116  A    between atoms: _285  and  _286
REMARK  117  A    between atoms: _291  and  _293
REMARK  118  A    between atoms: _293  and  _294
REMARK  119  A    between atoms: _293  and  _296
REMARK  120  A    between atoms: _296  and  _297
REMARK  121  A    between atoms: _297  and  _298
REMARK  122  A    between atoms: _298  and  _299
REMARK  123  A    between atoms: _308  and  _310
REMARK  124  A    between atoms: _310  and  _311
REMARK  125  A    between atoms: _310  and  _313
REMARK  126  A    between atoms: _313  and  _314
REMARK  127  A    between atoms: _317  and  _319
REMARK  128  A    between atoms: _319  and  _320
REMARK  129  A    between atoms: _319  and  _322
REMARK  130  A    between atoms: _322  and  _323
REMARK  131  A    between atoms: _326  and  _328
REMARK  132  A    between atoms: _328  and  _329
REMARK  133  A    between atoms: _328  and  _331
REMARK  134  A    between atoms: _331  and  _332
REMARK  135  A    between atoms: _335  and  _337
REMARK  136  A    between atoms: _337  and  _338
REMARK  137  A    between atoms: _337  and  _340
REMARK  138  A    between atoms: _340  and  _341
REMARK  139  A    between atoms: _344  and  _346
REMARK  140  A    between atoms: _346  and  _347
REMARK  141  A    between atoms: _349  and  _351
REMARK  142  A    between atoms: _351  and  _352
REMARK  143  A    between atoms: _355  and  _357
REMARK  144  A    between atoms: _357  and  _358
REMARK  145  A    between atoms: _357  and  _360
REMARK  146  A    between atoms: _360  and  _361
REMARK  147  A    between atoms: _364  and  _366
REMARK  148  A    between atoms: _366  and  _367
REMARK  149  A    between atoms: _366  and  _369
REMARK  150  A    between atoms: _369  and  _370
REMARK  151  A    between atoms: _373  and  _375
REMARK  152  A    between atoms: _375  and  _376
REMARK  153  A    between atoms: _375  and  _378
REMARK  154  A    between atoms: _378  and  _379
REMARK  155  A    between atoms: _382  and  _384
REMARK  156  A    between atoms: _384  and  _385
REMARK  157  A    between atoms: _384  and  _387
REMARK  158  A    between atoms: _390  and  _392
REMARK  159  A    between atoms: _392  and  _393
REMARK  160  A    between atoms: _392  and  _395
REMARK  161  A    between atoms: _395  and  _396
REMARK  162  A    between atoms: _396  and  _397
REMARK  163  A    between atoms: _397  and  _398
REMARK  164  A    between atoms: _398  and  _399
REMARK  165  A    between atoms: _403  and  _405
REMARK  166  A    between atoms: _405  and  _406
REMARK  167  A    between atoms: _405  and  _408
REMARK  168  A    between atoms: _408  and  _409
REMARK  169  A    between atoms: _409  and  _410
REMARK  170  A    between atoms: _412  and  _414
REMARK  171  A    between atoms: _414  and  _415
REMARK  172  A    between atoms: _414  and  _417
REMARK  173  A    between atoms: _417  and  _418
REMARK  174  A    between atoms: _421  and  _423
REMARK  175  A    between atoms: _423  and  _424
REMARK  176  A    between atoms: _426  and  _428
REMARK  177  A    between atoms: _428  and  _429
REMARK  178  A    between atoms: _431  and  _433
REMARK  179  A    between atoms: _433  and  _434
REMARK  180  A    between atoms: _433  and  _436
REMARK  181  A    between atoms: _436  and  _437
REMARK  182  A    between atoms: _440  and  _442
REMARK  183  A    between atoms: _442  and  _443
REMARK  184  A    between atoms: _445  and  _447
REMARK  185  A    between atoms: _447  and  _448
REMARK  186  A    between atoms: _450  and  _452
REMARK  187  A    between atoms: _452  and  _453
REMARK  188  A    between atoms: _452  and  _455
REMARK  189  A    between atoms: _455  and  _456
REMARK  190  A    between atoms: _462  and  _464
REMARK  191  A    between atoms: _464  and  _465
REMARK  192  A    between atoms: _464  and  _467
REMARK  193  A    between atoms: _467  and  _468
REMARK  194  A    between atoms: _471  and  _473
REMARK  195  A    between atoms: _473  and  _474
REMARK  196  A    between atoms: _473  and  _476
REMARK  197  A    between atoms: _476  and  _477
REMARK  198  A    between atoms: _480  and  _482
REMARK  199  A    between atoms: _482  and  _483
REMARK  200  A    between atoms: _482  and  _485
REMARK  201  A    between atoms: _485  and  _486
REMARK  202  A    between atoms: _490  and  _491
REMARK  203  A    between atoms: _496  and  _498
REMARK  204  A    between atoms: _498  and  _499
REMARK  205  A    between atoms: _498  and  _501
REMARK  206  A    between atoms: _504  and  _506
REMARK  207  A    between atoms: _506  and  _507
REMARK  208  A    between atoms: _506  and  _509
REMARK  209  A    between atoms: _509  and  _510
REMARK  210  A    between atoms: _515  and  _517
REMARK  211  A    between atoms: _517  and  _518
REMARK  212  A    between atoms: _517  and  _520
REMARK  213  A    between atoms: _520  and  _521
REMARK  214  A    between atoms: _524  and  _526
REMARK  215  A    between atoms: _526  and  _527
REMARK  216  A    between atoms: _529  and  _531
REMARK  217  A    between atoms: _531  and  _532
REMARK  218  A    between atoms: _531  and  _534
REMARK  219  A    between atoms: _534  and  _535
REMARK  220  A    between atoms: _535  and  _536
REMARK  221  A    between atoms: _536  and  _537
REMARK  222  A    between atoms: _546  and  _548
REMARK  223  A    between atoms: _548  and  _549
REMARK  224  A    between atoms: _548  and  _551
REMARK  225  A    between atoms: _551  and  _552
REMARK                            x       y       z     vdW  Elec       q    Type
REMARK                         _______ _______ _______ _____ _____    ______ ____
ROOT
ATOM      1  O   HOH     1      12.278  15.420   9.504  0.00  0.00    +0.000 OA
ENDROOT
TORSDOF 0
REMARK  Name = ../refined-set-2016/4dfg/4dfg_pocket.pdb
REMARK  225 active torsions:
REMARK  status: ('A' for Active; 'I' for Inactive)
REMARK    1  A    between atoms: _1  and  _3
REMARK    2  A    between atoms: _3  and  _4
REMARK    3  A    between atoms: _3  and  _6
REMARK    4  A    between atoms: _6  and  _7
REMARK    5  A    between atoms: _7  and  _8
REMARK    6  A    between atoms: _8  and  _9
REMARK    7  A    between atoms: _18  and  _20
REMARK    8  A    between atoms: _20  and  _21
REMARK    9  A    between atoms: _20  and  _23
REMARK   10  A    between atoms: _23  and  _24
REMARK   11  A    between atoms: _27  and  _29
REMARK   12  A    between atoms: _29  and  _30
REMARK   13  A    between atoms: _29  and  _32
REMARK   14  A    between atoms: _32  and  _33
REMARK   15  A    between atoms: _36  and  _38
REMARK   16  A    between atoms: _38  and  _39
REMARK   17  A    between atoms: _38  and  _41
REMARK   18  A    between atoms: _41  and  _42
REMARK   19  A    between atoms: _45  and  _47
REMARK   20  A    between atoms: _47  and  _48
REMARK   21  A    between atoms: _47  and  _50
REMARK   22  A    between atoms: _50  and  _51
REMARK   23  A    between atoms: _54  and  _56
REMARK   24  A    between atoms: _56  and  _57
REMARK   25  A    between atoms: _59  and  _61
REMARK   26  A    between atoms: _61  and  _62
REMARK   27  A    between atoms: _65  and  _67
REMARK   28  A    between atoms: _67  and  _68
REMARK   29  A    between atoms: _67  and  _70
REMARK   30  A    between atoms: _70  and  _71
REMARK   31  A    between atoms: _74  and  _76
REMARK   32  A    between atoms: _76  and  _77
REMARK   33  A    between atoms: _76  and  _79
REMARK   34  A    between atoms: _79  and  _80
REMARK   35  A    between atoms: _83  and  _85
REMARK   36  A    between atoms: _85  and  _86
REMARK   37  A    between atoms: _85  and  _88
REMARK   38  A    between atoms: _88  and  _89
REMARK   39  A    between atoms: _92  and  _94
REMARK   40  A    between atoms: _94  and  _95
REMARK   41  A    between atoms: _94  and  _97
REMARK   42  A    between atoms: _100  and  _102
REMARK   43  A    between atoms: _102  and  _103
REMARK   44  A    between atoms: _102  and  _105
REMARK   45  A    between atoms: _105  and  _106
REMARK   46  A    between atoms: _106  and  _107
REMARK   47  A    between atoms: _107  and  _108
REMARK   48  A    between atoms: _108  and  _109
REMARK   49  A    between atoms: _113  and  _115
REMARK   50  A    between atoms: _115  and  _116
REMARK   51  A    between atoms: _115  and  _118
REMARK   52  A    between atoms: _118  and  _119
REMARK   53  A    between atoms: _119  and  _120
REMARK   54  A    between atoms: _122  and  _124
REMARK   55  A    between atoms: _124  and  _125
REMARK   56  A    between atoms: _124  and  _127
REMARK   57  A    between atoms: _127  and  _128
REMARK   58  A    between atoms: _131  and  _133
REMARK   59  A    between atoms: _133  and  _134
REMARK   60  A    between atoms: _136  and  _138
REMARK   61  A    between atoms: _138  and  _139
REMARK   62  A    between atoms: _141  and  _143
REMARK   63  A    between atoms: _143  and  _144
REMARK   64  A    between atoms: _143  and  _146
REMARK   65  A    between atoms: _146  and  _147
REMARK   66  A    between atoms: _150  and  _152
REMARK   67  A    between atoms: _152  and  _153
REMARK   68  A    between atoms: _155  and  _157
REMARK   69  A    between atoms: _157  and  _158
REMARK   70  A    between atoms: _160  and  _162
REMARK   71  A    between atoms: _162  and  _163
REMARK   72  A    between atoms: _162  and  _165
REMARK   73  A    between atoms: _165  and  _166
REMARK   74  A    between atoms: _172  and  _174
REMARK   75  A    between atoms: _174  and  _175
REMARK   76  A    between atoms: _174  and  _177
REMARK   77  A    between atoms: _177  and  _178
REMARK   78  A    between atoms: _181  and  _183
REMARK   79  A    between atoms: _183  and  _184
REMARK   80  A    between atoms: _183  and  _186
REMARK   81  A    between atoms: _189  and  _191
REMARK   82  A    between atoms: _191  and  _192
REMARK   83  A    between atoms: _191  and  _194
REMARK   84  A    between atoms: _194  and  _195
REMARK   85  A    between atoms: _199  and  _200
REMARK   86  A    between atoms: _205  and  _207
REMARK   87  A    between atoms: _207  and  _208
REMARK   88  A    between atoms: _207  and  _210
REMARK   89  A    between atoms: _210  and  _211
REMARK   90  A    between atoms: _215  and  _216
REMARK   91  A    between atoms: _221  and  _223
REMARK   92  A    between atoms: _223  and  _224
REMARK   93  A    between atoms: _223  and  _226
REMARK   94  A    between atoms: _229  and  _231
REMARK   95  A    between atoms: _231  and  _232
REMARK   96  A    between atoms: _231  and  _234
REMARK   97  A    between atoms: _234  and  _235
REMARK   98  A    between atoms: _240  and  _242
REMARK   99  A    between atoms: _242  and  _243
REMARK  100  A    between atoms: _242  and  _245
REMARK  101  A    between atoms: _245  and  _246
REMARK  102  A    between atoms: _249  and  _251
REMARK  103  A    between atoms: _251  and  _252
REMARK  104  A    between atoms: _251  and  _254
REMARK  105  A    between atoms: _254  and  _255
REMARK  106  A    between atoms: _258  and  _260
REMARK  107  A    between atoms: _260  and  _261
REMARK  108  A    between atoms: _263  and  _265
REMARK  109  A    between atoms: _265  and  _266
REMARK  110  A    between atoms: _265  and  _268
REMARK  111  A    between atoms: _269  and  _270
REMARK  112  A    between atoms: _270  and  _271
REMARK  113  A    between atoms: _280  and  _282
REMARK  114  A    between atoms: _282  and  _283
REMARK  115  A    between atoms: _282  and  _285
REMARK  116  A    between atoms: _285  and  _286
REMARK  117  A    between atoms: _291  and  _293
REMARK  118  A    between atoms: _293  and  _294
REMARK  119  A    between atoms: _293  and  _296
REMARK  120  A    between atoms: _296  and  _297
REMARK  121  A    between atoms: _297  and  _298
REMARK  122  A    between atoms: _298  and  _299
REMARK  123  A    between atoms: _308  and  _310
REMARK  124  A    between atoms: _310  and  _311
REMARK  125  A    between atoms: _310  and  _313
REMARK  126  A    between atoms: _313  and  _314
REMARK  127  A    between atoms: _317  and  _319
REMARK  128  A    between atoms: _319  and  _320
REMARK  129  A    between atoms: _319  and  _322
REMARK  130  A    between atoms: _322  and  _323
REMARK  131  A    between atoms: _326  and  _328
REMARK  132  A    between atoms: _328  and  _329
REMARK  133  A    between atoms: _328  and  _331
REMARK  134  A    between atoms: _331  and  _332
REMARK  135  A    between atoms: _335  and  _337
REMARK  136  A    between atoms: _337  and  _338
REMARK  137  A    between atoms: _337  and  _340
REMARK  138  A    between atoms: _340  and  _341
REMARK  139  A    between atoms: _344  and  _346
REMARK  140  A    between atoms: _346  and  _347
REMARK  141  A    between atoms: _349  and  _351
REMARK  142  A    between atoms: _351  and  _352
REMARK  143  A    between atoms: _355  and  _357
REMARK  144  A    between atoms: _357  and  _358
REMARK  145  A    between atoms: _357  and  _360
REMARK  146  A    between atoms: _360  and  _361
REMARK  147  A    between atoms: _364  and  _366
REMARK  148  A    between atoms: _366  and  _367
REMARK  149  A    between atoms: _366  and  _369
REMARK  150  A    between atoms: _369  and  _370
REMARK  151  A    between atoms: _373  and  _375
REMARK  152  A    between atoms: _375  and  _376
REMARK  153  A    between atoms: _375  and  _378
REMARK  154  A    between atoms: _378  and  _379
REMARK  155  A    between atoms: _382  and  _384
REMARK  156  A    between atoms: _384  and  _385
REMARK  157  A    between atoms: _384  and  _387
REMARK  158  A    between atoms: _390  and  _392
REMARK  159  A    between atoms: _392  and  _393
REMARK  160  A    between atoms: _392  and  _395
REMARK  161  A    between atoms: _395  and  _396
REMARK  162  A    between atoms: _396  and  _397
REMARK  163  A    between atoms: _397  and  _398
REMARK  164  A    between atoms: _398  and  _399
REMARK  165  A    between atoms: _403  and  _405
REMARK  166  A    between atoms: _405  and  _406
REMARK  167  A    between atoms: _405  and  _408
REMARK  168  A    between atoms: _408  and  _409
REMARK  169  A    between atoms: _409  and  _410
REMARK  170  A    between atoms: _412  and  _414
REMARK  171  A    between atoms: _414  and  _415
REMARK  172  A    between atoms: _414  and  _417
REMARK  173  A    between atoms: _417  and  _418
REMARK  174  A    between atoms: _421  and  _423
REMARK  175  A    between atoms: _423  and  _424
REMARK  176  A    between atoms: _426  and  _428
REMARK  177  A    between atoms: _428  and  _429
REMARK  178  A    between atoms: _431  and  _433
REMARK  179  A    between atoms: _433  and  _434
REMARK  180  A    between atoms: _433  and  _436
REMARK  181  A    between atoms: _436  and  _437
REMARK  182  A    between atoms: _440  and  _442
REMARK  183  A    between atoms: _442  and  _443
REMARK  184  A    between atoms: _445  and  _447
REMARK  185  A    between atoms: _447  and  _448
REMARK  186  A    between atoms: _450  and  _452
REMARK  187  A    between atoms: _452  and  _453
REMARK  188  A    between atoms: _452  and  _455
REMARK  189  A    between atoms: _455  and  _456
REMARK  190  A    between atoms: _462  and  _464
REMARK  191  A    between atoms: _464  and  _465
REMARK  192  A    between atoms: _464  and  _467
REMARK  193  A    between atoms: _467  and  _468
REMARK  194  A    between atoms: _471  and  _473
REMARK  195  A    between atoms: _473  and  _474
REMARK  196  A    between atoms: _473  and  _476
REMARK  197  A    between atoms: _476  and  _477
REMARK  198  A    between atoms: _480  and  _482
REMARK  199  A    between atoms: _482  and  _483
REMARK  200  A    between atoms: _482  and  _485
REMARK  201  A    between atoms: _485  and  _486
REMARK  202  A    between atoms: _490  and  _491
REMARK  203  A    between atoms: _496  and  _498
REMARK  204  A    between atoms: _498  and  _499
REMARK  205  A    between atoms: _498  and  _501
REMARK  206  A    between atoms: _504  and  _506
REMARK  207  A    between atoms: _506  and  _507
REMARK  208  A    between atoms: _506  and  _509
REMARK  209  A    between atoms: _509  and  _510
REMARK  210  A    between atoms: _515  and  _517
REMARK  211  A    between atoms: _517  and  _518
REMARK  212  A    between atoms: _517  and  _520
REMARK  213  A    between atoms: _520  and  _521
REMARK  214  A    between atoms: _524  and  _526
REMARK  215  A    between atoms: _526  and  _527
REMARK  216  A    between atoms: _529  and  _531
REMARK  217  A    between atoms: _531  and  _532
REMARK  218  A    between atoms: _531  and  _534
REMARK  219  A    between atoms: _534  and  _535
REMARK  220  A    between atoms: _535  and  _536
REMARK  221  A    between atoms: _536  and  _537
REMARK  222  A    between atoms: _546  and  _548
REMARK  223  A    between atoms: _548  and  _549
REMARK  224  A    between atoms: _548  and  _551
REMARK  225  A    between atoms: _551  and  _552
REMARK                            x       y       z     vdW  Elec       q    Type
REMARK                         _______ _______ _______ _____ _____    ______ ____
ROOT
ATOM      1  O   HOH     1      20.726  27.930  18.488  0.00  0.00    +0.000 OA
ENDROOT
TORSDOF 0
REMARK  Name = ../refined-set-2016/4dfg/4dfg_pocket.pdb
REMARK  225 active torsions:
REMARK  status: ('A' for Active; 'I' for Inactive)
REMARK    1  A    between atoms: _1  and  _3
REMARK    2  A    between atoms: _3  and  _4
REMARK    3  A    between atoms: _3  and  _6
REMARK    4  A    between atoms: _6  and  _7
REMARK    5  A    between atoms: _7  and  _8
REMARK    6  A    between atoms: _8  and  _9
REMARK    7  A    between atoms: _18  and  _20
REMARK    8  A    between atoms: _20  and  _21
REMARK    9  A    between atoms: _20  and  _23
REMARK   10  A    between atoms: _23  and  _24
REMARK   11  A    between atoms: _27  and  _29
REMARK   12  A    between atoms: _29  and  _30
REMARK   13  A    between atoms: _29  and  _32
REMARK   14  A    between atoms: _32  and  _33
REMARK   15  A    between atoms: _36  and  _38
REMARK   16  A    between atoms: _38  and  _39
REMARK   17  A    between atoms: _38  and  _41
REMARK   18  A    between atoms: _41  and  _42
REMARK   19  A    between atoms: _45  and  _47
REMARK   20  A    between atoms: _47  and  _48
REMARK   21  A    between atoms: _47  and  _50
REMARK   22  A    between atoms: _50  and  _51
REMARK   23  A    between atoms: _54  and  _56
REMARK   24  A    between atoms: _56  and  _57
REMARK   25  A    between atoms: _59  and  _61
REMARK   26  A    between atoms: _61  and  _62
REMARK   27  A    between atoms: _65  and  _67
REMARK   28  A    between atoms: _67  and  _68
REMARK   29  A    between atoms: _67  and  _70
REMARK   30  A    between atoms: _70  and  _71
REMARK   31  A    between atoms: _74  and  _76
REMARK   32  A    between atoms: _76  and  _77
REMARK   33  A    between atoms: _76  and  _79
REMARK   34  A    between atoms: _79  and  _80
REMARK   35  A    between atoms: _83  and  _85
REMARK   36  A    between atoms: _85  and  _86
REMARK   37  A    between atoms: _85  and  _88
REMARK   38  A    between atoms: _88  and  _89
REMARK   39  A    between atoms: _92  and  _94
REMARK   40  A    between atoms: _94  and  _95
REMARK   41  A    between atoms: _94  and  _97
REMARK   42  A    between atoms: _100  and  _102
REMARK   43  A    between atoms: _102  and  _103
REMARK   44  A    between atoms: _102  and  _105
REMARK   45  A    between atoms: _105  and  _106
REMARK   46  A    between atoms: _106  and  _107
REMARK   47  A    between atoms: _107  and  _108
REMARK   48  A    between atoms: _108  and  _109
REMARK   49  A    between atoms: _113  and  _115
REMARK   50  A    between atoms: _115  and  _116
REMARK   51  A    between atoms: _115  and  _118
REMARK   52  A    between atoms: _118  and  _119
REMARK   53  A    between atoms: _119  and  _120
REMARK   54  A    between atoms: _122  and  _124
REMARK   55  A    between atoms: _124  and  _125
REMARK   56  A    between atoms: _124  and  _127
REMARK   57  A    between atoms: _127  and  _128
REMARK   58  A    between atoms: _131  and  _133
REMARK   59  A    between atoms: _133  and  _134
REMARK   60  A    between atoms: _136  and  _138
REMARK   61  A    between atoms: _138  and  _139
REMARK   62  A    between atoms: _141  and  _143
REMARK   63  A    between atoms: _143  and  _144
REMARK   64  A    between atoms: _143  and  _146
REMARK   65  A    between atoms: _146  and  _147
REMARK   66  A    between atoms: _150  and  _152
REMARK   67  A    between atoms: _152  and  _153
REMARK   68  A    between atoms: _155  and  _157
REMARK   69  A    between atoms: _157  and  _158
REMARK   70  A    between atoms: _160  and  _162
REMARK   71  A    between atoms: _162  and  _163
REMARK   72  A    between atoms: _162  and  _165
REMARK   73  A    between atoms: _165  and  _166
REMARK   74  A    between atoms: _172  and  _174
REMARK   75  A    between atoms: _174  and  _175
REMARK   76  A    between atoms: _174  and  _177
REMARK   77  A    between atoms: _177  and  _178
REMARK   78  A    between atoms: _181  and  _183
REMARK   79  A    between atoms: _183  and  _184
REMARK   80  A    between atoms: _183  and  _186
REMARK   81  A    between atoms: _189  and  _191
REMARK   82  A    between atoms: _191  and  _192
REMARK   83  A    between atoms: _191  and  _194
REMARK   84  A    between atoms: _194  and  _195
REMARK   85  A    between atoms: _199  and  _200
REMARK   86  A    between atoms: _205  and  _207
REMARK   87  A    between atoms: _207  and  _208
REMARK   88  A    between atoms: _207  and  _210
REMARK   89  A    between atoms: _210  and  _211
REMARK   90  A    between atoms: _215  and  _216
REMARK   91  A    between atoms: _221  and  _223
REMARK   92  A    between atoms: _223  and  _224
REMARK   93  A    between atoms: _223  and  _226
REMARK   94  A    between atoms: _229  and  _231
REMARK   95  A    between atoms: _231  and  _232
REMARK   96  A    between atoms: _231  and  _234
REMARK   97  A    between atoms: _234  and  _235
REMARK   98  A    between atoms: _240  and  _242
REMARK   99  A    between atoms: _242  and  _243
REMARK  100  A    between atoms: _242  and  _245
REMARK  101  A    between atoms: _245  and  _246
REMARK  102  A    between atoms: _249  and  _251
REMARK  103  A    between atoms: _251  and  _252
REMARK  104  A    between atoms: _251  and  _254
REMARK  105  A    between atoms: _254  and  _255
REMARK  106  A    between atoms: _258  and  _260
REMARK  107  A    between atoms: _260  and  _261
REMARK  108  A    between atoms: _263  and  _265
REMARK  109  A    between atoms: _265  and  _266
REMARK  110  A    between atoms: _265  and  _268
REMARK  111  A    between atoms: _269  and  _270
REMARK  112  A    between atoms: _270  and  _271
REMARK  113  A    between atoms: _280  and  _282
REMARK  114  A    between atoms: _282  and  _283
REMARK  115  A    between atoms: _282  and  _285
REMARK  116  A    between atoms: _285  and  _286
REMARK  117  A    between atoms: _291  and  _293
REMARK  118  A    between atoms: _293  and  _294
REMARK  119  A    between atoms: _293  and  _296
REMARK  120  A    between atoms: _296  and  _297
REMARK  121  A    between atoms: _297  and  _298
REMARK  122  A    between atoms: _298  and  _299
REMARK  123  A    between atoms: _308  and  _310
REMARK  124  A    between atoms: _310  and  _311
REMARK  125  A    between atoms: _310  and  _313
REMARK  126  A    between atoms: _313  and  _314
REMARK  127  A    between atoms: _317  and  _319
REMARK  128  A    between atoms: _319  and  _320
REMARK  129  A    between atoms: _319  and  _322
REMARK  130  A    between atoms: _322  and  _323
REMARK  131  A    between atoms: _326  and  _328
REMARK  132  A    between atoms: _328  and  _329
REMARK  133  A    between atoms: _328  and  _331
REMARK  134  A    between atoms: _331  and  _332
REMARK  135  A    between atoms: _335  and  _337
REMARK  136  A    between atoms: _337  and  _338
REMARK  137  A    between atoms: _337  and  _340
REMARK  138  A    between atoms: _340  and  _341
REMARK  139  A    between atoms: _344  and  _346
REMARK  140  A    between atoms: _346  and  _347
REMARK  141  A    between atoms: _349  and  _351
REMARK  142  A    between atoms: _351  and  _352
REMARK  143  A    between atoms: _355  and  _357
REMARK  144  A    between atoms: _357  and  _358
REMARK  145  A    between atoms: _357  and  _360
REMARK  146  A    between atoms: _360  and  _361
REMARK  147  A    between atoms: _364  and  _366
REMARK  148  A    between atoms: _366  and  _367
REMARK  149  A    between atoms: _366  and  _369
REMARK  150  A    between atoms: _369  and  _370
REMARK  151  A    between atoms: _373  and  _375
REMARK  152  A    between atoms: _375  and  _376
REMARK  153  A    between atoms: _375  and  _378
REMARK  154  A    between atoms: _378  and  _379
REMARK  155  A    between atoms: _382  and  _384
REMARK  156  A    between atoms: _384  and  _385
REMARK  157  A    between atoms: _384  and  _387
REMARK  158  A    between atoms: _390  and  _392
REMARK  159  A    between atoms: _392  and  _393
REMARK  160  A    between atoms: _392  and  _395
REMARK  161  A    between atoms: _395  and  _396
REMARK  162  A    between atoms: _396  and  _397
REMARK  163  A    between atoms: _397  and  _398
REMARK  164  A    between atoms: _398  and  _399
REMARK  165  A    between atoms: _403  and  _405
REMARK  166  A    between atoms: _405  and  _406
REMARK  167  A    between atoms: _405  and  _408
REMARK  168  A    between atoms: _408  and  _409
REMARK  169  A    between atoms: _409  and  _410
REMARK  170  A    between atoms: _412  and  _414
REMARK  171  A    between atoms: _414  and  _415
REMARK  172  A    between atoms: _414  and  _417
REMARK  173  A    between atoms: _417  and  _418
REMARK  174  A    between atoms: _421  and  _423
REMARK  175  A    between atoms: _423  and  _424
REMARK  176  A    between atoms: _426  and  _428
REMARK  177  A    between atoms: _428  and  _429
REMARK  178  A    between atoms: _431  and  _433
REMARK  179  A    between atoms: _433  and  _434
REMARK  180  A    between atoms: _433  and  _436
REMARK  181  A    between atoms: _436  and  _437
REMARK  182  A    between atoms: _440  and  _442
REMARK  183  A    between atoms: _442  and  _443
REMARK  184  A    between atoms: _445  and  _447
REMARK  185  A    between atoms: _447  and  _448
REMARK  186  A    between atoms: _450  and  _452
REMARK  187  A    between atoms: _452  and  _453
REMARK  188  A    between atoms: _452  and  _455
REMARK  189  A    between atoms: _455  and  _456
REMARK  190  A    between atoms: _462  and  _464
REMARK  191  A    between atoms: _464  and  _465
REMARK  192  A    between atoms: _464  and  _467
REMARK  193  A    between atoms: _467  and  _468
REMARK  194  A    between atoms: _471  and  _473
REMARK  195  A    between atoms: _473  and  _474
REMARK  196  A    between atoms: _473  and  _476
REMARK  197  A    between atoms: _476  and  _477
REMARK  198  A    between atoms: _480  and  _482
REMARK  199  A    between atoms: _482  and  _483
REMARK  200  A    between atoms: _482  and  _485
REMARK  201  A    between atoms: _485  and  _486
REMARK  202  A    between atoms: _490  and  _491
REMARK  203  A    between atoms: _496  and  _498
REMARK  204  A    between atoms: _498  and  _499
REMARK  205  A    between atoms: _498  and  _501
REMARK  206  A    between atoms: _504  and  _506
REMARK  207  A    between atoms: _506  and  _507
REMARK  208  A    between atoms: _506  and  _509
REMARK  209  A    between atoms: _509  and  _510
REMARK  210  A    between atoms: _515  and  _517
REMARK  211  A    between atoms: _517  and  _518
REMARK  212  A    between atoms: _517  and  _520
REMARK  213  A    between atoms: _520  and  _521
REMARK  214  A    between atoms: _524  and  _526
REMARK  215  A    between atoms: _526  and  _527
REMARK  216  A    between atoms: _529  and  _531
REMARK  217  A    between atoms: _531  and  _532
REMARK  218  A    between atoms: _531  and  _534
REMARK  219  A    between atoms: _534  and  _535
REMARK  220  A    between atoms: _535  and  _536
REMARK  221  A    between atoms: _536  and  _537
REMARK  222  A    between atoms: _546  and  _548
REMARK  223  A    between atoms: _548  and  _549
REMARK  224  A    between atoms: _548  and  _551
REMARK  225  A    between atoms: _551  and  _552
REMARK                            x       y       z     vdW  Elec       q    Type
REMARK                         _______ _______ _______ _____ _____    ______ ____
ROOT
ATOM      1  O   HOH     1      10.365  20.023  18.069  0.00  0.00    +0.000 OA
ENDROOT
TORSDOF 0
REMARK  Name = ../refined-set-2016/4dfg/4dfg_pocket.pdb
REMARK  225 active torsions:
REMARK  status: ('A' for Active; 'I' for Inactive)
REMARK    1  A    between atoms: _1  and  _3
REMARK    2  A    between atoms: _3  and  _4
REMARK    3  A    between atoms: _3  and  _6
REMARK    4  A    between atoms: _6  and  _7
REMARK    5  A    between atoms: _7  and  _8
REMARK    6  A    between atoms: _8  and  _9
REMARK    7  A    between atoms: _18  and  _20
REMARK    8  A    between atoms: _20  and  _21
REMARK    9  A    between atoms: _20  and  _23
REMARK   10  A    between atoms: _23  and  _24
REMARK   11  A    between atoms: _27  and  _29
REMARK   12  A    between atoms: _29  and  _30
REMARK   13  A    between atoms: _29  and  _32
REMARK   14  A    between atoms: _32  and  _33
REMARK   15  A    between atoms: _36  and  _38
REMARK   16  A    between atoms: _38  and  _39
REMARK   17  A    between atoms: _38  and  _41
REMARK   18  A    between atoms: _41  and  _42
REMARK   19  A    between atoms: _45  and  _47
REMARK   20  A    between atoms: _47  and  _48
REMARK   21  A    between atoms: _47  and  _50
REMARK   22  A    between atoms: _50  and  _51
REMARK   23  A    between atoms: _54  and  _56
REMARK   24  A    between atoms: _56  and  _57
REMARK   25  A    between atoms: _59  and  _61
REMARK   26  A    between atoms: _61  and  _62
REMARK   27  A    between atoms: _65  and  _67
REMARK   28  A    between atoms: _67  and  _68
REMARK   29  A    between atoms: _67  and  _70
REMARK   30  A    between atoms: _70  and  _71
REMARK   31  A    between atoms: _74  and  _76
REMARK   32  A    between atoms: _76  and  _77
REMARK   33  A    between atoms: _76  and  _79
REMARK   34  A    between atoms: _79  and  _80
REMARK   35  A    between atoms: _83  and  _85
REMARK   36  A    between atoms: _85  and  _86
REMARK   37  A    between atoms: _85  and  _88
REMARK   38  A    between atoms: _88  and  _89
REMARK   39  A    between atoms: _92  and  _94
REMARK   40  A    between atoms: _94  and  _95
REMARK   41  A    between atoms: _94  and  _97
REMARK   42  A    between atoms: _100  and  _102
REMARK   43  A    between atoms: _102  and  _103
REMARK   44  A    between atoms: _102  and  _105
REMARK   45  A    between atoms: _105  and  _106
REMARK   46  A    between atoms: _106  and  _107
REMARK   47  A    between atoms: _107  and  _108
REMARK   48  A    between atoms: _108  and  _109
REMARK   49  A    between atoms: _113  and  _115
REMARK   50  A    between atoms: _115  and  _116
REMARK   51  A    between atoms: _115  and  _118
REMARK   52  A    between atoms: _118  and  _119
REMARK   53  A    between atoms: _119  and  _120
REMARK   54  A    between atoms: _122  and  _124
REMARK   55  A    between atoms: _124  and  _125
REMARK   56  A    between atoms: _124  and  _127
REMARK   57  A    between atoms: _127  and  _128
REMARK   58  A    between atoms: _131  and  _133
REMARK   59  A    between atoms: _133  and  _134
REMARK   60  A    between atoms: _136  and  _138
REMARK   61  A    between atoms: _138  and  _139
REMARK   62  A    between atoms: _141  and  _143
REMARK   63  A    between atoms: _143  and  _144
REMARK   64  A    between atoms: _143  and  _146
REMARK   65  A    between atoms: _146  and  _147
REMARK   66  A    between atoms: _150  and  _152
REMARK   67  A    between atoms: _152  and  _153
REMARK   68  A    between atoms: _155  and  _157
REMARK   69  A    between atoms: _157  and  _158
REMARK   70  A    between atoms: _160  and  _162
REMARK   71  A    between atoms: _162  and  _163
REMARK   72  A    between atoms: _162  and  _165
REMARK   73  A    between atoms: _165  and  _166
REMARK   74  A    between atoms: _172  and  _174
REMARK   75  A    between atoms: _174  and  _175
REMARK   76  A    between atoms: _174  and  _177
REMARK   77  A    between atoms: _177  and  _178
REMARK   78  A    between atoms: _181  and  _183
REMARK   79  A    between atoms: _183  and  _184
REMARK   80  A    between atoms: _183  and  _186
REMARK   81  A    between atoms: _189  and  _191
REMARK   82  A    between atoms: _191  and  _192
REMARK   83  A    between atoms: _191  and  _194
REMARK   84  A    between atoms: _194  and  _195
REMARK   85  A    between atoms: _199  and  _200
REMARK   86  A    between atoms: _205  and  _207
REMARK   87  A    between atoms: _207  and  _208
REMARK   88  A    between atoms: _207  and  _210
REMARK   89  A    between atoms: _210  and  _211
REMARK   90  A    between atoms: _215  and  _216
REMARK   91  A    between atoms: _221  and  _223
REMARK   92  A    between atoms: _223  and  _224
REMARK   93  A    between atoms: _223  and  _226
REMARK   94  A    between atoms: _229  and  _231
REMARK   95  A    between atoms: _231  and  _232
REMARK   96  A    between atoms: _231  and  _234
REMARK   97  A    between atoms: _234  and  _235
REMARK   98  A    between atoms: _240  and  _242
REMARK   99  A    between atoms: _242  and  _243
REMARK  100  A    between atoms: _242  and  _245
REMARK  101  A    between atoms: _245  and  _246
REMARK  102  A    between atoms: _249  and  _251
REMARK  103  A    between atoms: _251  and  _252
REMARK  104  A    between atoms: _251  and  _254
REMARK  105  A    between atoms: _254  and  _255
REMARK  106  A    between atoms: _258  and  _260
REMARK  107  A    between atoms: _260  and  _261
REMARK  108  A    between atoms: _263  and  _265
REMARK  109  A    between atoms: _265  and  _266
REMARK  110  A    between atoms: _265  and  _268
REMARK  111  A    between atoms: _269  and  _270
REMARK  112  A    between atoms: _270  and  _271
REMARK  113  A    between atoms: _280  and  _282
REMARK  114  A    between atoms: _282  and  _283
REMARK  115  A    between atoms: _282  and  _285
REMARK  116  A    between atoms: _285  and  _286
REMARK  117  A    between atoms: _291  and  _293
REMARK  118  A    between atoms: _293  and  _294
REMARK  119  A    between atoms: _293  and  _296
REMARK  120  A    between atoms: _296  and  _297
REMARK  121  A    between atoms: _297  and  _298
REMARK  122  A    between atoms: _298  and  _299
REMARK  123  A    between atoms: _308  and  _310
REMARK  124  A    between atoms: _310  and  _311
REMARK  125  A    between atoms: _310  and  _313
REMARK  126  A    between atoms: _313  and  _314
REMARK  127  A    between atoms: _317  and  _319
REMARK  128  A    between atoms: _319  and  _320
REMARK  129  A    between atoms: _319  and  _322
REMARK  130  A    between atoms: _322  and  _323
REMARK  131  A    between atoms: _326  and  _328
REMARK  132  A    between atoms: _328  and  _329
REMARK  133  A    between atoms: _328  and  _331
REMARK  134  A    between atoms: _331  and  _332
REMARK  135  A    between atoms: _335  and  _337
REMARK  136  A    between atoms: _337  and  _338
REMARK  137  A    between atoms: _337  and  _340
REMARK  138  A    between atoms: _340  and  _341
REMARK  139  A    between atoms: _344  and  _346
REMARK  140  A    between atoms: _346  and  _347
REMARK  141  A    between atoms: _349  and  _351
REMARK  142  A    between atoms: _351  and  _352
REMARK  143  A    between atoms: _355  and  _357
REMARK  144  A    between atoms: _357  and  _358
REMARK  145  A    between atoms: _357  and  _360
REMARK  146  A    between atoms: _360  and  _361
REMARK  147  A    between atoms: _364  and  _366
REMARK  148  A    between atoms: _366  and  _367
REMARK  149  A    between atoms: _366  and  _369
REMARK  150  A    between atoms: _369  and  _370
REMARK  151  A    between atoms: _373  and  _375
REMARK  152  A    between atoms: _375  and  _376
REMARK  153  A    between atoms: _375  and  _378
REMARK  154  A    between atoms: _378  and  _379
REMARK  155  A    between atoms: _382  and  _384
REMARK  156  A    between atoms: _384  and  _385
REMARK  157  A    between atoms: _384  and  _387
REMARK  158  A    between atoms: _390  and  _392
REMARK  159  A    between atoms: _392  and  _393
REMARK  160  A    between atoms: _392  and  _395
REMARK  161  A    between atoms: _395  and  _396
REMARK  162  A    between atoms: _396  and  _397
REMARK  163  A    between atoms: _397  and  _398
REMARK  164  A    between atoms: _398  and  _399
REMARK  165  A    between atoms: _403  and  _405
REMARK  166  A    between atoms: _405  and  _406
REMARK  167  A    between atoms: _405  and  _408
REMARK  168  A    between atoms: _408  and  _409
REMARK  169  A    between atoms: _409  and  _410
REMARK  170  A    between atoms: _412  and  _414
REMARK  171  A    between atoms: _414  and  _415
REMARK  172  A    between atoms: _414  and  _417
REMARK  173  A    between atoms: _417  and  _418
REMARK  174  A    between atoms: _421  and  _423
REMARK  175  A    between atoms: _423  and  _424
REMARK  176  A    between atoms: _426  and  _428
REMARK  177  A    between atoms: _428  and  _429
REMARK  178  A    between atoms: _431  and  _433
REMARK  179  A    between atoms: _433  and  _434
REMARK  180  A    between atoms: _433  and  _436
REMARK  181  A    between atoms: _436  and  _437
REMARK  182  A    between atoms: _440  and  _442
REMARK  183  A    between atoms: _442  and  _443
REMARK  184  A    between atoms: _445  and  _447
REMARK  185  A    between atoms: _447  and  _448
REMARK  186  A    between atoms: _450  and  _452
REMARK  187  A    between atoms: _452  and  _453
REMARK  188  A    between atoms: _452  and  _455
REMARK  189  A    between atoms: _455  and  _456
REMARK  190  A    between atoms: _462  and  _464
REMARK  191  A    between atoms: _464  and  _465
REMARK  192  A    between atoms: _464  and  _467
REMARK  193  A    between atoms: _467  and  _468
REMARK  194  A    between atoms: _471  and  _473
REMARK  195  A    between atoms: _473  and  _474
REMARK  196  A    between atoms: _473  and  _476
REMARK  197  A    between atoms: _476  and  _477
REMARK  198  A    between atoms: _480  and  _482
REMARK  199  A    between atoms: _482  and  _483
REMARK  200  A    between atoms: _482  and  _485
REMARK  201  A    between atoms: _485  and  _486
REMARK  202  A    between atoms: _490  and  _491
REMARK  203  A    between atoms: _496  and  _498
REMARK  204  A    between atoms: _498  and  _499
REMARK  205  A    between atoms: _498  and  _501
REMARK  206  A    between atoms: _504  and  _506
REMARK  207  A    between atoms: _506  and  _507
REMARK  208  A    between atoms: _506  and  _509
REMARK  209  A    between atoms: _509  and  _510
REMARK  210  A    between atoms: _515  and  _517
REMARK  211  A    between atoms: _517  and  _518
REMARK  212  A    between atoms: _517  and  _520
REMARK  213  A    between atoms: _520  and  _521
REMARK  214  A    between atoms: _524  and  _526
REMARK  215  A    between atoms: _526  and  _527
REMARK  216  A    between atoms: _529  and  _531
REMARK  217  A    between atoms: _531  and  _532
REMARK  218  A    between atoms: _531  and  _534
REMARK  219  A    between atoms: _534  and  _535
REMARK  220  A    between atoms: _535  and  _536
REMARK  221  A    between atoms: _536  and  _537
REMARK  222  A    between atoms: _546  and  _548
REMARK  223  A    between atoms: _548  and  _549
REMARK  224  A    between atoms: _548  and  _551
REMARK  225  A    between atoms: _551  and  _552
REMARK                            x       y       z     vdW  Elec       q    Type
REMARK                         _______ _______ _______ _____ _____    ______ ____
ROOT
ATOM      1  O   HOH     1       7.113  15.938  25.164  0.00  0.00    +0.000 OA
ENDROOT
TORSDOF 0
REMARK  Name = ../refined-set-2016/4dfg/4dfg_pocket.pdb
REMARK  225 active torsions:
REMARK  status: ('A' for Active; 'I' for Inactive)
REMARK    1  A    between atoms: _1  and  _3
REMARK    2  A    between atoms: _3  and  _4
REMARK    3  A    between atoms: _3  and  _6
REMARK    4  A    between atoms: _6  and  _7
REMARK    5  A    between atoms: _7  and  _8
REMARK    6  A    between atoms: _8  and  _9
REMARK    7  A    between atoms: _18  and  _20
REMARK    8  A    between atoms: _20  and  _21
REMARK    9  A    between atoms: _20  and  _23
REMARK   10  A    between atoms: _23  and  _24
REMARK   11  A    between atoms: _27  and  _29
REMARK   12  A    between atoms: _29  and  _30
REMARK   13  A    between atoms: _29  and  _32
REMARK   14  A    between atoms: _32  and  _33
REMARK   15  A    between atoms: _36  and  _38
REMARK   16  A    between atoms: _38  and  _39
REMARK   17  A    between atoms: _38  and  _41
REMARK   18  A    between atoms: _41  and  _42
REMARK   19  A    between atoms: _45  and  _47
REMARK   20  A    between atoms: _47  and  _48
REMARK   21  A    between atoms: _47  and  _50
REMARK   22  A    between atoms: _50  and  _51
REMARK   23  A    between atoms: _54  and  _56
REMARK   24  A    between atoms: _56  and  _57
REMARK   25  A    between atoms: _59  and  _61
REMARK   26  A    between atoms: _61  and  _62
REMARK   27  A    between atoms: _65  and  _67
REMARK   28  A    between atoms: _67  and  _68
REMARK   29  A    between atoms: _67  and  _70
REMARK   30  A    between atoms: _70  and  _71
REMARK   31  A    between atoms: _74  and  _76
REMARK   32  A    between atoms: _76  and  _77
REMARK   33  A    between atoms: _76  and  _79
REMARK   34  A    between atoms: _79  and  _80
REMARK   35  A    between atoms: _83  and  _85
REMARK   36  A    between atoms: _85  and  _86
REMARK   37  A    between atoms: _85  and  _88
REMARK   38  A    between atoms: _88  and  _89
REMARK   39  A    between atoms: _92  and  _94
REMARK   40  A    between atoms: _94  and  _95
REMARK   41  A    between atoms: _94  and  _97
REMARK   42  A    between atoms: _100  and  _102
REMARK   43  A    between atoms: _102  and  _103
REMARK   44  A    between atoms: _102  and  _105
REMARK   45  A    between atoms: _105  and  _106
REMARK   46  A    between atoms: _106  and  _107
REMARK   47  A    between atoms: _107  and  _108
REMARK   48  A    between atoms: _108  and  _109
REMARK   49  A    between atoms: _113  and  _115
REMARK   50  A    between atoms: _115  and  _116
REMARK   51  A    between atoms: _115  and  _118
REMARK   52  A    between atoms: _118  and  _119
REMARK   53  A    between atoms: _119  and  _120
REMARK   54  A    between atoms: _122  and  _124
REMARK   55  A    between atoms: _124  and  _125
REMARK   56  A    between atoms: _124  and  _127
REMARK   57  A    between atoms: _127  and  _128
REMARK   58  A    between atoms: _131  and  _133
REMARK   59  A    between atoms: _133  and  _134
REMARK   60  A    between atoms: _136  and  _138
REMARK   61  A    between atoms: _138  and  _139
REMARK   62  A    between atoms: _141  and  _143
REMARK   63  A    between atoms: _143  and  _144
REMARK   64  A    between atoms: _143  and  _146
REMARK   65  A    between atoms: _146  and  _147
REMARK   66  A    between atoms: _150  and  _152
REMARK   67  A    between atoms: _152  and  _153
REMARK   68  A    between atoms: _155  and  _157
REMARK   69  A    between atoms: _157  and  _158
REMARK   70  A    between atoms: _160  and  _162
REMARK   71  A    between atoms: _162  and  _163
REMARK   72  A    between atoms: _162  and  _165
REMARK   73  A    between atoms: _165  and  _166
REMARK   74  A    between atoms: _172  and  _174
REMARK   75  A    between atoms: _174  and  _175
REMARK   76  A    between atoms: _174  and  _177
REMARK   77  A    between atoms: _177  and  _178
REMARK   78  A    between atoms: _181  and  _183
REMARK   79  A    between atoms: _183  and  _184
REMARK   80  A    between atoms: _183  and  _186
REMARK   81  A    between atoms: _189  and  _191
REMARK   82  A    between atoms: _191  and  _192
REMARK   83  A    between atoms: _191  and  _194
REMARK   84  A    between atoms: _194  and  _195
REMARK   85  A    between atoms: _199  and  _200
REMARK   86  A    between atoms: _205  and  _207
REMARK   87  A    between atoms: _207  and  _208
REMARK   88  A    between atoms: _207  and  _210
REMARK   89  A    between atoms: _210  and  _211
REMARK   90  A    between atoms: _215  and  _216
REMARK   91  A    between atoms: _221  and  _223
REMARK   92  A    between atoms: _223  and  _224
REMARK   93  A    between atoms: _223  and  _226
REMARK   94  A    between atoms: _229  and  _231
REMARK   95  A    between atoms: _231  and  _232
REMARK   96  A    between atoms: _231  and  _234
REMARK   97  A    between atoms: _234  and  _235
REMARK   98  A    between atoms: _240  and  _242
REMARK   99  A    between atoms: _242  and  _243
REMARK  100  A    between atoms: _242  and  _245
REMARK  101  A    between atoms: _245  and  _246
REMARK  102  A    between atoms: _249  and  _251
REMARK  103  A    between atoms: _251  and  _252
REMARK  104  A    between atoms: _251  and  _254
REMARK  105  A    between atoms: _254  and  _255
REMARK  106  A    between atoms: _258  and  _260
REMARK  107  A    between atoms: _260  and  _261
REMARK  108  A    between atoms: _263  and  _265
REMARK  109  A    between atoms: _265  and  _266
REMARK  110  A    between atoms: _265  and  _268
REMARK  111  A    between atoms: _269  and  _270
REMARK  112  A    between atoms: _270  and  _271
REMARK  113  A    between atoms: _280  and  _282
REMARK  114  A    between atoms: _282  and  _283
REMARK  115  A    between atoms: _282  and  _285
REMARK  116  A    between atoms: _285  and  _286
REMARK  117  A    between atoms: _291  and  _293
REMARK  118  A    between atoms: _293  and  _294
REMARK  119  A    between atoms: _293  and  _296
REMARK  120  A    between atoms: _296  and  _297
REMARK  121  A    between atoms: _297  and  _298
REMARK  122  A    between atoms: _298  and  _299
REMARK  123  A    between atoms: _308  and  _310
REMARK  124  A    between atoms: _310  and  _311
REMARK  125  A    between atoms: _310  and  _313
REMARK  126  A    between atoms: _313  and  _314
REMARK  127  A    between atoms: _317  and  _319
REMARK  128  A    between atoms: _319  and  _320
REMARK  129  A    between atoms: _319  and  _322
REMARK  130  A    between atoms: _322  and  _323
REMARK  131  A    between atoms: _326  and  _328
REMARK  132  A    between atoms: _328  and  _329
REMARK  133  A    between atoms: _328  and  _331
REMARK  134  A    between atoms: _331  and  _332
REMARK  135  A    between atoms: _335  and  _337
REMARK  136  A    between atoms: _337  and  _338
REMARK  137  A    between atoms: _337  and  _340
REMARK  138  A    between atoms: _340  and  _341
REMARK  139  A    between atoms: _344  and  _346
REMARK  140  A    between atoms: _346  and  _347
REMARK  141  A    between atoms: _349  and  _351
REMARK  142  A    between atoms: _351  and  _352
REMARK  143  A    between atoms: _355  and  _357
REMARK  144  A    between atoms: _357  and  _358
REMARK  145  A    between atoms: _357  and  _360
REMARK  146  A    between atoms: _360  and  _361
REMARK  147  A    between atoms: _364  and  _366
REMARK  148  A    between atoms: _366  and  _367
REMARK  149  A    between atoms: _366  and  _369
REMARK  150  A    between atoms: _369  and  _370
REMARK  151  A    between atoms: _373  and  _375
REMARK  152  A    between atoms: _375  and  _376
REMARK  153  A    between atoms: _375  and  _378
REMARK  154  A    between atoms: _378  and  _379
REMARK  155  A    between atoms: _382  and  _384
REMARK  156  A    between atoms: _384  and  _385
REMARK  157  A    between atoms: _384  and  _387
REMARK  158  A    between atoms: _390  and  _392
REMARK  159  A    between atoms: _392  and  _393
REMARK  160  A    between atoms: _392  and  _395
REMARK  161  A    between atoms: _395  and  _396
REMARK  162  A    between atoms: _396  and  _397
REMARK  163  A    between atoms: _397  and  _398
REMARK  164  A    between atoms: _398  and  _399
REMARK  165  A    between atoms: _403  and  _405
REMARK  166  A    between atoms: _405  and  _406
REMARK  167  A    between atoms: _405  and  _408
REMARK  168  A    between atoms: _408  and  _409
REMARK  169  A    between atoms: _409  and  _410
REMARK  170  A    between atoms: _412  and  _414
REMARK  171  A    between atoms: _414  and  _415
REMARK  172  A    between atoms: _414  and  _417
REMARK  173  A    between atoms: _417  and  _418
REMARK  174  A    between atoms: _421  and  _423
REMARK  175  A    between atoms: _423  and  _424
REMARK  176  A    between atoms: _426  and  _428
REMARK  177  A    between atoms: _428  and  _429
REMARK  178  A    between atoms: _431  and  _433
REMARK  179  A    between atoms: _433  and  _434
REMARK  180  A    between atoms: _433  and  _436
REMARK  181  A    between atoms: _436  and  _437
REMARK  182  A    between atoms: _440  and  _442
REMARK  183  A    between atoms: _442  and  _443
REMARK  184  A    between atoms: _445  and  _447
REMARK  185  A    between atoms: _447  and  _448
REMARK  186  A    between atoms: _450  and  _452
REMARK  187  A    between atoms: _452  and  _453
REMARK  188  A    between atoms: _452  and  _455
REMARK  189  A    between atoms: _455  and  _456
REMARK  190  A    between atoms: _462  and  _464
REMARK  191  A    between atoms: _464  and  _465
REMARK  192  A    between atoms: _464  and  _467
REMARK  193  A    between atoms: _467  and  _468
REMARK  194  A    between atoms: _471  and  _473
REMARK  195  A    between atoms: _473  and  _474
REMARK  196  A    between atoms: _473  and  _476
REMARK  197  A    between atoms: _476  and  _477
REMARK  198  A    between atoms: _480  and  _482
REMARK  199  A    between atoms: _482  and  _483
REMARK  200  A    between atoms: _482  and  _485
REMARK  201  A    between atoms: _485  and  _486
REMARK  202  A    between atoms: _490  and  _491
REMARK  203  A    between atoms: _496  and  _498
REMARK  204  A    between atoms: _498  and  _499
REMARK  205  A    between atoms: _498  and  _501
REMARK  206  A    between atoms: _504  and  _506
REMARK  207  A    between atoms: _506  and  _507
REMARK  208  A    between atoms: _506  and  _509
REMARK  209  A    between atoms: _509  and  _510
REMARK  210  A    between atoms: _515  and  _517
REMARK  211  A    between atoms: _517  and  _518
REMARK  212  A    between atoms: _517  and  _520
REMARK  213  A    between atoms: _520  and  _521
REMARK  214  A    between atoms: _524  and  _526
REMARK  215  A    between atoms: _526  and  _527
REMARK  216  A    between atoms: _529  and  _531
REMARK  217  A    between atoms: _531  and  _532
REMARK  218  A    between atoms: _531  and  _534
REMARK  219  A    between atoms: _534  and  _535
REMARK  220  A    between atoms: _535  and  _536
REMARK  221  A    between atoms: _536  and  _537
REMARK  222  A    between atoms: _546  and  _548
REMARK  223  A    between atoms: _548  and  _549
REMARK  224  A    between atoms: _548  and  _551
REMARK  225  A    between atoms: _551  and  _552
REMARK                            x       y       z     vdW  Elec       q    Type
REMARK                         _______ _______ _______ _____ _____    ______ ____
ROOT
ATOM      1  O   HOH     1      12.892  18.664  13.294  0.00  0.00    +0.000 OA
ENDROOT
TORSDOF 0
REMARK  Name = ../refined-set-2016/4dfg/4dfg_pocket.pdb
REMARK  225 active torsions:
REMARK  status: ('A' for Active; 'I' for Inactive)
REMARK    1  A    between atoms: _1  and  _3
REMARK    2  A    between atoms: _3  and  _4
REMARK    3  A    between atoms: _3  and  _6
REMARK    4  A    between atoms: _6  and  _7
REMARK    5  A    between atoms: _7  and  _8
REMARK    6  A    between atoms: _8  and  _9
REMARK    7  A    between atoms: _18  and  _20
REMARK    8  A    between atoms: _20  and  _21
REMARK    9  A    between atoms: _20  and  _23
REMARK   10  A    between atoms: _23  and  _24
REMARK   11  A    between atoms: _27  and  _29
REMARK   12  A    between atoms: _29  and  _30
REMARK   13  A    between atoms: _29  and  _32
REMARK   14  A    between atoms: _32  and  _33
REMARK   15  A    between atoms: _36  and  _38
REMARK   16  A    between atoms: _38  and  _39
REMARK   17  A    between atoms: _38  and  _41
REMARK   18  A    between atoms: _41  and  _42
REMARK   19  A    between atoms: _45  and  _47
REMARK   20  A    between atoms: _47  and  _48
REMARK   21  A    between atoms: _47  and  _50
REMARK   22  A    between atoms: _50  and  _51
REMARK   23  A    between atoms: _54  and  _56
REMARK   24  A    between atoms: _56  and  _57
REMARK   25  A    between atoms: _59  and  _61
REMARK   26  A    between atoms: _61  and  _62
REMARK   27  A    between atoms: _65  and  _67
REMARK   28  A    between atoms: _67  and  _68
REMARK   29  A    between atoms: _67  and  _70
REMARK   30  A    between atoms: _70  and  _71
REMARK   31  A    between atoms: _74  and  _76
REMARK   32  A    between atoms: _76  and  _77
REMARK   33  A    between atoms: _76  and  _79
REMARK   34  A    between atoms: _79  and  _80
REMARK   35  A    between atoms: _83  and  _85
REMARK   36  A    between atoms: _85  and  _86
REMARK   37  A    between atoms: _85  and  _88
REMARK   38  A    between atoms: _88  and  _89
REMARK   39  A    between atoms: _92  and  _94
REMARK   40  A    between atoms: _94  and  _95
REMARK   41  A    between atoms: _94  and  _97
REMARK   42  A    between atoms: _100  and  _102
REMARK   43  A    between atoms: _102  and  _103
REMARK   44  A    between atoms: _102  and  _105
REMARK   45  A    between atoms: _105  and  _106
REMARK   46  A    between atoms: _106  and  _107
REMARK   47  A    between atoms: _107  and  _108
REMARK   48  A    between atoms: _108  and  _109
REMARK   49  A    between atoms: _113  and  _115
REMARK   50  A    between atoms: _115  and  _116
REMARK   51  A    between atoms: _115  and  _118
REMARK   52  A    between atoms: _118  and  _119
REMARK   53  A    between atoms: _119  and  _120
REMARK   54  A    between atoms: _122  and  _124
REMARK   55  A    between atoms: _124  and  _125
REMARK   56  A    between atoms: _124  and  _127
REMARK   57  A    between atoms: _127  and  _128
REMARK   58  A    between atoms: _131  and  _133
REMARK   59  A    between atoms: _133  and  _134
REMARK   60  A    between atoms: _136  and  _138
REMARK   61  A    between atoms: _138  and  _139
REMARK   62  A    between atoms: _141  and  _143
REMARK   63  A    between atoms: _143  and  _144
REMARK   64  A    between atoms: _143  and  _146
REMARK   65  A    between atoms: _146  and  _147
REMARK   66  A    between atoms: _150  and  _152
REMARK   67  A    between atoms: _152  and  _153
REMARK   68  A    between atoms: _155  and  _157
REMARK   69  A    between atoms: _157  and  _158
REMARK   70  A    between atoms: _160  and  _162
REMARK   71  A    between atoms: _162  and  _163
REMARK   72  A    between atoms: _162  and  _165
REMARK   73  A    between atoms: _165  and  _166
REMARK   74  A    between atoms: _172  and  _174
REMARK   75  A    between atoms: _174  and  _175
REMARK   76  A    between atoms: _174  and  _177
REMARK   77  A    between atoms: _177  and  _178
REMARK   78  A    between atoms: _181  and  _183
REMARK   79  A    between atoms: _183  and  _184
REMARK   80  A    between atoms: _183  and  _186
REMARK   81  A    between atoms: _189  and  _191
REMARK   82  A    between atoms: _191  and  _192
REMARK   83  A    between atoms: _191  and  _194
REMARK   84  A    between atoms: _194  and  _195
REMARK   85  A    between atoms: _199  and  _200
REMARK   86  A    between atoms: _205  and  _207
REMARK   87  A    between atoms: _207  and  _208
REMARK   88  A    between atoms: _207  and  _210
REMARK   89  A    between atoms: _210  and  _211
REMARK   90  A    between atoms: _215  and  _216
REMARK   91  A    between atoms: _221  and  _223
REMARK   92  A    between atoms: _223  and  _224
REMARK   93  A    between atoms: _223  and  _226
REMARK   94  A    between atoms: _229  and  _231
REMARK   95  A    between atoms: _231  and  _232
REMARK   96  A    between atoms: _231  and  _234
REMARK   97  A    between atoms: _234  and  _235
REMARK   98  A    between atoms: _240  and  _242
REMARK   99  A    between atoms: _242  and  _243
REMARK  100  A    between atoms: _242  and  _245
REMARK  101  A    between atoms: _245  and  _246
REMARK  102  A    between atoms: _249  and  _251
REMARK  103  A    between atoms: _251  and  _252
REMARK  104  A    between atoms: _251  and  _254
REMARK  105  A    between atoms: _254  and  _255
REMARK  106  A    between atoms: _258  and  _260
REMARK  107  A    between atoms: _260  and  _261
REMARK  108  A    between atoms: _263  and  _265
REMARK  109  A    between atoms: _265  and  _266
REMARK  110  A    between atoms: _265  and  _268
REMARK  111  A    between atoms: _269  and  _270
REMARK  112  A    between atoms: _270  and  _271
REMARK  113  A    between atoms: _280  and  _282
REMARK  114  A    between atoms: _282  and  _283
REMARK  115  A    between atoms: _282  and  _285
REMARK  116  A    between atoms: _285  and  _286
REMARK  117  A    between atoms: _291  and  _293
REMARK  118  A    between atoms: _293  and  _294
REMARK  119  A    between atoms: _293  and  _296
REMARK  120  A    between atoms: _296  and  _297
REMARK  121  A    between atoms: _297  and  _298
REMARK  122  A    between atoms: _298  and  _299
REMARK  123  A    between atoms: _308  and  _310
REMARK  124  A    between atoms: _310  and  _311
REMARK  125  A    between atoms: _310  and  _313
REMARK  126  A    between atoms: _313  and  _314
REMARK  127  A    between atoms: _317  and  _319
REMARK  128  A    between atoms: _319  and  _320
REMARK  129  A    between atoms: _319  and  _322
REMARK  130  A    between atoms: _322  and  _323
REMARK  131  A    between atoms: _326  and  _328
REMARK  132  A    between atoms: _328  and  _329
REMARK  133  A    between atoms: _328  and  _331
REMARK  134  A    between atoms: _331  and  _332
REMARK  135  A    between atoms: _335  and  _337
REMARK  136  A    between atoms: _337  and  _338
REMARK  137  A    between atoms: _337  and  _340
REMARK  138  A    between atoms: _340  and  _341
REMARK  139  A    between atoms: _344  and  _346
REMARK  140  A    between atoms: _346  and  _347
REMARK  141  A    between atoms: _349  and  _351
REMARK  142  A    between atoms: _351  and  _352
REMARK  143  A    between atoms: _355  and  _357
REMARK  144  A    between atoms: _357  and  _358
REMARK  145  A    between atoms: _357  and  _360
REMARK  146  A    between atoms: _360  and  _361
REMARK  147  A    between atoms: _364  and  _366
REMARK  148  A    between atoms: _366  and  _367
REMARK  149  A    between atoms: _366  and  _369
REMARK  150  A    between atoms: _369  and  _370
REMARK  151  A    between atoms: _373  and  _375
REMARK  152  A    between atoms: _375  and  _376
REMARK  153  A    between atoms: _375  and  _378
REMARK  154  A    between atoms: _378  and  _379
REMARK  155  A    between atoms: _382  and  _384
REMARK  156  A    between atoms: _384  and  _385
REMARK  157  A    between atoms: _384  and  _387
REMARK  158  A    between atoms: _390  and  _392
REMARK  159  A    between atoms: _392  and  _393
REMARK  160  A    between atoms: _392  and  _395
REMARK  161  A    between atoms: _395  and  _396
REMARK  162  A    between atoms: _396  and  _397
REMARK  163  A    between atoms: _397  and  _398
REMARK  164  A    between atoms: _398  and  _399
REMARK  165  A    between atoms: _403  and  _405
REMARK  166  A    between atoms: _405  and  _406
REMARK  167  A    between atoms: _405  and  _408
REMARK  168  A    between atoms: _408  and  _409
REMARK  169  A    between atoms: _409  and  _410
REMARK  170  A    between atoms: _412  and  _414
REMARK  171  A    between atoms: _414  and  _415
REMARK  172  A    between atoms: _414  and  _417
REMARK  173  A    between atoms: _417  and  _418
REMARK  174  A    between atoms: _421  and  _423
REMARK  175  A    between atoms: _423  and  _424
REMARK  176  A    between atoms: _426  and  _428
REMARK  177  A    between atoms: _428  and  _429
REMARK  178  A    between atoms: _431  and  _433
REMARK  179  A    between atoms: _433  and  _434
REMARK  180  A    between atoms: _433  and  _436
REMARK  181  A    between atoms: _436  and  _437
REMARK  182  A    between atoms: _440  and  _442
REMARK  183  A    between atoms: _442  and  _443
REMARK  184  A    between atoms: _445  and  _447
REMARK  185  A    between atoms: _447  and  _448
REMARK  186  A    between atoms: _450  and  _452
REMARK  187  A    between atoms: _452  and  _453
REMARK  188  A    between atoms: _452  and  _455
REMARK  189  A    between atoms: _455  and  _456
REMARK  190  A    between atoms: _462  and  _464
REMARK  191  A    between atoms: _464  and  _465
REMARK  192  A    between atoms: _464  and  _467
REMARK  193  A    between atoms: _467  and  _468
REMARK  194  A    between atoms: _471  and  _473
REMARK  195  A    between atoms: _473  and  _474
REMARK  196  A    between atoms: _473  and  _476
REMARK  197  A    between atoms: _476  and  _477
REMARK  198  A    between atoms: _480  and  _482
REMARK  199  A    between atoms: _482  and  _483
REMARK  200  A    between atoms: _482  and  _485
REMARK  201  A    between atoms: _485  and  _486
REMARK  202  A    between atoms: _490  and  _491
REMARK  203  A    between atoms: _496  and  _498
REMARK  204  A    between atoms: _498  and  _499
REMARK  205  A    between atoms: _498  and  _501
REMARK  206  A    between atoms: _504  and  _506
REMARK  207  A    between atoms: _506  and  _507
REMARK  208  A    between atoms: _506  and  _509
REMARK  209  A    between atoms: _509  and  _510
REMARK  210  A    between atoms: _515  and  _517
REMARK  211  A    between atoms: _517  and  _518
REMARK  212  A    between atoms: _517  and  _520
REMARK  213  A    between atoms: _520  and  _521
REMARK  214  A    between atoms: _524  and  _526
REMARK  215  A    between atoms: _526  and  _527
REMARK  216  A    between atoms: _529  and  _531
REMARK  217  A    between atoms: _531  and  _532
REMARK  218  A    between atoms: _531  and  _534
REMARK  219  A    between atoms: _534  and  _535
REMARK  220  A    between atoms: _535  and  _536
REMARK  221  A    between atoms: _536  and  _537
REMARK  222  A    between atoms: _546  and  _548
REMARK  223  A    between atoms: _548  and  _549
REMARK  224  A    between atoms: _548  and  _551
REMARK  225  A    between atoms: _551  and  _552
REMARK                            x       y       z     vdW  Elec       q    Type
REMARK                         _______ _______ _______ _____ _____    ______ ____
ROOT
ATOM      1  O   HOH     1      19.425  17.940   8.905  0.00  0.00    +0.000 OA
ENDROOT
TORSDOF 0
REMARK  Name = ../refined-set-2016/4dfg/4dfg_pocket.pdb
REMARK  225 active torsions:
REMARK  status: ('A' for Active; 'I' for Inactive)
REMARK    1  A    between atoms: _1  and  _3
REMARK    2  A    between atoms: _3  and  _4
REMARK    3  A    between atoms: _3  and  _6
REMARK    4  A    between atoms: _6  and  _7
REMARK    5  A    between atoms: _7  and  _8
REMARK    6  A    between atoms: _8  and  _9
REMARK    7  A    between atoms: _18  and  _20
REMARK    8  A    between atoms: _20  and  _21
REMARK    9  A    between atoms: _20  and  _23
REMARK   10  A    between atoms: _23  and  _24
REMARK   11  A    between atoms: _27  and  _29
REMARK   12  A    between atoms: _29  and  _30
REMARK   13  A    between atoms: _29  and  _32
REMARK   14  A    between atoms: _32  and  _33
REMARK   15  A    between atoms: _36  and  _38
REMARK   16  A    between atoms: _38  and  _39
REMARK   17  A    between atoms: _38  and  _41
REMARK   18  A    between atoms: _41  and  _42
REMARK   19  A    between atoms: _45  and  _47
REMARK   20  A    between atoms: _47  and  _48
REMARK   21  A    between atoms: _47  and  _50
REMARK   22  A    between atoms: _50  and  _51
REMARK   23  A    between atoms: _54  and  _56
REMARK   24  A    between atoms: _56  and  _57
REMARK   25  A    between atoms: _59  and  _61
REMARK   26  A    between atoms: _61  and  _62
REMARK   27  A    between atoms: _65  and  _67
REMARK   28  A    between atoms: _67  and  _68
REMARK   29  A    between atoms: _67  and  _70
REMARK   30  A    between atoms: _70  and  _71
REMARK   31  A    between atoms: _74  and  _76
REMARK   32  A    between atoms: _76  and  _77
REMARK   33  A    between atoms: _76  and  _79
REMARK   34  A    between atoms: _79  and  _80
REMARK   35  A    between atoms: _83  and  _85
REMARK   36  A    between atoms: _85  and  _86
REMARK   37  A    between atoms: _85  and  _88
REMARK   38  A    between atoms: _88  and  _89
REMARK   39  A    between atoms: _92  and  _94
REMARK   40  A    between atoms: _94  and  _95
REMARK   41  A    between atoms: _94  and  _97
REMARK   42  A    between atoms: _100  and  _102
REMARK   43  A    between atoms: _102  and  _103
REMARK   44  A    between atoms: _102  and  _105
REMARK   45  A    between atoms: _105  and  _106
REMARK   46  A    between atoms: _106  and  _107
REMARK   47  A    between atoms: _107  and  _108
REMARK   48  A    between atoms: _108  and  _109
REMARK   49  A    between atoms: _113  and  _115
REMARK   50  A    between atoms: _115  and  _116
REMARK   51  A    between atoms: _115  and  _118
REMARK   52  A    between atoms: _118  and  _119
REMARK   53  A    between atoms: _119  and  _120
REMARK   54  A    between atoms: _122  and  _124
REMARK   55  A    between atoms: _124  and  _125
REMARK   56  A    between atoms: _124  and  _127
REMARK   57  A    between atoms: _127  and  _128
REMARK   58  A    between atoms: _131  and  _133
REMARK   59  A    between atoms: _133  and  _134
REMARK   60  A    between atoms: _136  and  _138
REMARK   61  A    between atoms: _138  and  _139
REMARK   62  A    between atoms: _141  and  _143
REMARK   63  A    between atoms: _143  and  _144
REMARK   64  A    between atoms: _143  and  _146
REMARK   65  A    between atoms: _146  and  _147
REMARK   66  A    between atoms: _150  and  _152
REMARK   67  A    between atoms: _152  and  _153
REMARK   68  A    between atoms: _155  and  _157
REMARK   69  A    between atoms: _157  and  _158
REMARK   70  A    between atoms: _160  and  _162
REMARK   71  A    between atoms: _162  and  _163
REMARK   72  A    between atoms: _162  and  _165
REMARK   73  A    between atoms: _165  and  _166
REMARK   74  A    between atoms: _172  and  _174
REMARK   75  A    between atoms: _174  and  _175
REMARK   76  A    between atoms: _174  and  _177
REMARK   77  A    between atoms: _177  and  _178
REMARK   78  A    between atoms: _181  and  _183
REMARK   79  A    between atoms: _183  and  _184
REMARK   80  A    between atoms: _183  and  _186
REMARK   81  A    between atoms: _189  and  _191
REMARK   82  A    between atoms: _191  and  _192
REMARK   83  A    between atoms: _191  and  _194
REMARK   84  A    between atoms: _194  and  _195
REMARK   85  A    between atoms: _199  and  _200
REMARK   86  A    between atoms: _205  and  _207
REMARK   87  A    between atoms: _207  and  _208
REMARK   88  A    between atoms: _207  and  _210
REMARK   89  A    between atoms: _210  and  _211
REMARK   90  A    between atoms: _215  and  _216
REMARK   91  A    between atoms: _221  and  _223
REMARK   92  A    between atoms: _223  and  _224
REMARK   93  A    between atoms: _223  and  _226
REMARK   94  A    between atoms: _229  and  _231
REMARK   95  A    between atoms: _231  and  _232
REMARK   96  A    between atoms: _231  and  _234
REMARK   97  A    between atoms: _234  and  _235
REMARK   98  A    between atoms: _240  and  _242
REMARK   99  A    between atoms: _242  and  _243
REMARK  100  A    between atoms: _242  and  _245
REMARK  101  A    between atoms: _245  and  _246
REMARK  102  A    between atoms: _249  and  _251
REMARK  103  A    between atoms: _251  and  _252
REMARK  104  A    between atoms: _251  and  _254
REMARK  105  A    between atoms: _254  and  _255
REMARK  106  A    between atoms: _258  and  _260
REMARK  107  A    between atoms: _260  and  _261
REMARK  108  A    between atoms: _263  and  _265
REMARK  109  A    between atoms: _265  and  _266
REMARK  110  A    between atoms: _265  and  _268
REMARK  111  A    between atoms: _269  and  _270
REMARK  112  A    between atoms: _270  and  _271
REMARK  113  A    between atoms: _280  and  _282
REMARK  114  A    between atoms: _282  and  _283
REMARK  115  A    between atoms: _282  and  _285
REMARK  116  A    between atoms: _285  and  _286
REMARK  117  A    between atoms: _291  and  _293
REMARK  118  A    between atoms: _293  and  _294
REMARK  119  A    between atoms: _293  and  _296
REMARK  120  A    between atoms: _296  and  _297
REMARK  121  A    between atoms: _297  and  _298
REMARK  122  A    between atoms: _298  and  _299
REMARK  123  A    between atoms: _308  and  _310
REMARK  124  A    between atoms: _310  and  _311
REMARK  125  A    between atoms: _310  and  _313
REMARK  126  A    between atoms: _313  and  _314
REMARK  127  A    between atoms: _317  and  _319
REMARK  128  A    between atoms: _319  and  _320
REMARK  129  A    between atoms: _319  and  _322
REMARK  130  A    between atoms: _322  and  _323
REMARK  131  A    between atoms: _326  and  _328
REMARK  132  A    between atoms: _328  and  _329
REMARK  133  A    between atoms: _328  and  _331
REMARK  134  A    between atoms: _331  and  _332
REMARK  135  A    between atoms: _335  and  _337
REMARK  136  A    between atoms: _337  and  _338
REMARK  137  A    between atoms: _337  and  _340
REMARK  138  A    between atoms: _340  and  _341
REMARK  139  A    between atoms: _344  and  _346
REMARK  140  A    between atoms: _346  and  _347
REMARK  141  A    between atoms: _349  and  _351
REMARK  142  A    between atoms: _351  and  _352
REMARK  143  A    between atoms: _355  and  _357
REMARK  144  A    between atoms: _357  and  _358
REMARK  145  A    between atoms: _357  and  _360
REMARK  146  A    between atoms: _360  and  _361
REMARK  147  A    between atoms: _364  and  _366
REMARK  148  A    between atoms: _366  and  _367
REMARK  149  A    between atoms: _366  and  _369
REMARK  150  A    between atoms: _369  and  _370
REMARK  151  A    between atoms: _373  and  _375
REMARK  152  A    between atoms: _375  and  _376
REMARK  153  A    between atoms: _375  and  _378
REMARK  154  A    between atoms: _378  and  _379
REMARK  155  A    between atoms: _382  and  _384
REMARK  156  A    between atoms: _384  and  _385
REMARK  157  A    between atoms: _384  and  _387
REMARK  158  A    between atoms: _390  and  _392
REMARK  159  A    between atoms: _392  and  _393
REMARK  160  A    between atoms: _392  and  _395
REMARK  161  A    between atoms: _395  and  _396
REMARK  162  A    between atoms: _396  and  _397
REMARK  163  A    between atoms: _397  and  _398
REMARK  164  A    between atoms: _398  and  _399
REMARK  165  A    between atoms: _403  and  _405
REMARK  166  A    between atoms: _405  and  _406
REMARK  167  A    between atoms: _405  and  _408
REMARK  168  A    between atoms: _408  and  _409
REMARK  169  A    between atoms: _409  and  _410
REMARK  170  A    between atoms: _412  and  _414
REMARK  171  A    between atoms: _414  and  _415
REMARK  172  A    between atoms: _414  and  _417
REMARK  173  A    between atoms: _417  and  _418
REMARK  174  A    between atoms: _421  and  _423
REMARK  175  A    between atoms: _423  and  _424
REMARK  176  A    between atoms: _426  and  _428
REMARK  177  A    between atoms: _428  and  _429
REMARK  178  A    between atoms: _431  and  _433
REMARK  179  A    between atoms: _433  and  _434
REMARK  180  A    between atoms: _433  and  _436
REMARK  181  A    between atoms: _436  and  _437
REMARK  182  A    between atoms: _440  and  _442
REMARK  183  A    between atoms: _442  and  _443
REMARK  184  A    between atoms: _445  and  _447
REMARK  185  A    between atoms: _447  and  _448
REMARK  186  A    between atoms: _450  and  _452
REMARK  187  A    between atoms: _452  and  _453
REMARK  188  A    between atoms: _452  and  _455
REMARK  189  A    between atoms: _455  and  _456
REMARK  190  A    between atoms: _462  and  _464
REMARK  191  A    between atoms: _464  and  _465
REMARK  192  A    between atoms: _464  and  _467
REMARK  193  A    between atoms: _467  and  _468
REMARK  194  A    between atoms: _471  and  _473
REMARK  195  A    between atoms: _473  and  _474
REMARK  196  A    between atoms: _473  and  _476
REMARK  197  A    between atoms: _476  and  _477
REMARK  198  A    between atoms: _480  and  _482
REMARK  199  A    between atoms: _482  and  _483
REMARK  200  A    between atoms: _482  and  _485
REMARK  201  A    between atoms: _485  and  _486
REMARK  202  A    between atoms: _490  and  _491
REMARK  203  A    between atoms: _496  and  _498
REMARK  204  A    between atoms: _498  and  _499
REMARK  205  A    between atoms: _498  and  _501
REMARK  206  A    between atoms: _504  and  _506
REMARK  207  A    between atoms: _506  and  _507
REMARK  208  A    between atoms: _506  and  _509
REMARK  209  A    between atoms: _509  and  _510
REMARK  210  A    between atoms: _515  and  _517
REMARK  211  A    between atoms: _517  and  _518
REMARK  212  A    between atoms: _517  and  _520
REMARK  213  A    between atoms: _520  and  _521
REMARK  214  A    between atoms: _524  and  _526
REMARK  215  A    between atoms: _526  and  _527
REMARK  216  A    between atoms: _529  and  _531
REMARK  217  A    between atoms: _531  and  _532
REMARK  218  A    between atoms: _531  and  _534
REMARK  219  A    between atoms: _534  and  _535
REMARK  220  A    between atoms: _535  and  _536
REMARK  221  A    between atoms: _536  and  _537
REMARK  222  A    between atoms: _546  and  _548
REMARK  223  A    between atoms: _548  and  _549
REMARK  224  A    between atoms: _548  and  _551
REMARK  225  A    between atoms: _551  and  _552
REMARK                            x       y       z     vdW  Elec       q    Type
REMARK                         _______ _______ _______ _____ _____    ______ ____
ROOT
ATOM      1  O   UNL     1      11.022  15.160  16.502  0.00  0.00    +0.000 OA
ATOM      2  O   UNL     1      10.922  14.220  15.942  0.00  0.00    +0.000 OA
ENDROOT
TORSDOF 0
REMARK  Name = ../refined-set-2016/4dfg/4dfg_pocket.pdb
REMARK  225 active torsions:
REMARK  status: ('A' for Active; 'I' for Inactive)
REMARK    1  A    between atoms: _1  and  _3
REMARK    2  A    between atoms: _3  and  _4
REMARK    3  A    between atoms: _3  and  _6
REMARK    4  A    between atoms: _6  and  _7
REMARK    5  A    between atoms: _7  and  _8
REMARK    6  A    between atoms: _8  and  _9
REMARK    7  A    between atoms: _18  and  _20
REMARK    8  A    between atoms: _20  and  _21
REMARK    9  A    between atoms: _20  and  _23
REMARK   10  A    between atoms: _23  and  _24
REMARK   11  A    between atoms: _27  and  _29
REMARK   12  A    between atoms: _29  and  _30
REMARK   13  A    between atoms: _29  and  _32
REMARK   14  A    between atoms: _32  and  _33
REMARK   15  A    between atoms: _36  and  _38
REMARK   16  A    between atoms: _38  and  _39
REMARK   17  A    between atoms: _38  and  _41
REMARK   18  A    between atoms: _41  and  _42
REMARK   19  A    between atoms: _45  and  _47
REMARK   20  A    between atoms: _47  and  _48
REMARK   21  A    between atoms: _47  and  _50
REMARK   22  A    between atoms: _50  and  _51
REMARK   23  A    between atoms: _54  and  _56
REMARK   24  A    between atoms: _56  and  _57
REMARK   25  A    between atoms: _59  and  _61
REMARK   26  A    between atoms: _61  and  _62
REMARK   27  A    between atoms: _65  and  _67
REMARK   28  A    between atoms: _67  and  _68
REMARK   29  A    between atoms: _67  and  _70
REMARK   30  A    between atoms: _70  and  _71
REMARK   31  A    between atoms: _74  and  _76
REMARK   32  A    between atoms: _76  and  _77
REMARK   33  A    between atoms: _76  and  _79
REMARK   34  A    between atoms: _79  and  _80
REMARK   35  A    between atoms: _83  and  _85
REMARK   36  A    between atoms: _85  and  _86
REMARK   37  A    between atoms: _85  and  _88
REMARK   38  A    between atoms: _88  and  _89
REMARK   39  A    between atoms: _92  and  _94
REMARK   40  A    between atoms: _94  and  _95
REMARK   41  A    between atoms: _94  and  _97
REMARK   42  A    between atoms: _100  and  _102
REMARK   43  A    between atoms: _102  and  _103
REMARK   44  A    between atoms: _102  and  _105
REMARK   45  A    between atoms: _105  and  _106
REMARK   46  A    between atoms: _106  and  _107
REMARK   47  A    between atoms: _107  and  _108
REMARK   48  A    between atoms: _108  and  _109
REMARK   49  A    between atoms: _113  and  _115
REMARK   50  A    between atoms: _115  and  _116
REMARK   51  A    between atoms: _115  and  _118
REMARK   52  A    between atoms: _118  and  _119
REMARK   53  A    between atoms: _119  and  _120
REMARK   54  A    between atoms: _122  and  _124
REMARK   55  A    between atoms: _124  and  _125
REMARK   56  A    between atoms: _124  and  _127
REMARK   57  A    between atoms: _127  and  _128
REMARK   58  A    between atoms: _131  and  _133
REMARK   59  A    between atoms: _133  and  _134
REMARK   60  A    between atoms: _136  and  _138
REMARK   61  A    between atoms: _138  and  _139
REMARK   62  A    between atoms: _141  and  _143
REMARK   63  A    between atoms: _143  and  _144
REMARK   64  A    between atoms: _143  and  _146
REMARK   65  A    between atoms: _146  and  _147
REMARK   66  A    between atoms: _150  and  _152
REMARK   67  A    between atoms: _152  and  _153
REMARK   68  A    between atoms: _155  and  _157
REMARK   69  A    between atoms: _157  and  _158
REMARK   70  A    between atoms: _160  and  _162
REMARK   71  A    between atoms: _162  and  _163
REMARK   72  A    between atoms: _162  and  _165
REMARK   73  A    between atoms: _165  and  _166
REMARK   74  A    between atoms: _172  and  _174
REMARK   75  A    between atoms: _174  and  _175
REMARK   76  A    between atoms: _174  and  _177
REMARK   77  A    between atoms: _177  and  _178
REMARK   78  A    between atoms: _181  and  _183
REMARK   79  A    between atoms: _183  and  _184
REMARK   80  A    between atoms: _183  and  _186
REMARK   81  A    between atoms: _189  and  _191
REMARK   82  A    between atoms: _191  and  _192
REMARK   83  A    between atoms: _191  and  _194
REMARK   84  A    between atoms: _194  and  _195
REMARK   85  A    between atoms: _199  and  _200
REMARK   86  A    between atoms: _205  and  _207
REMARK   87  A    between atoms: _207  and  _208
REMARK   88  A    between atoms: _207  and  _210
REMARK   89  A    between atoms: _210  and  _211
REMARK   90  A    between atoms: _215  and  _216
REMARK   91  A    between atoms: _221  and  _223
REMARK   92  A    between atoms: _223  and  _224
REMARK   93  A    between atoms: _223  and  _226
REMARK   94  A    between atoms: _229  and  _231
REMARK   95  A    between atoms: _231  and  _232
REMARK   96  A    between atoms: _231  and  _234
REMARK   97  A    between atoms: _234  and  _235
REMARK   98  A    between atoms: _240  and  _242
REMARK   99  A    between atoms: _242  and  _243
REMARK  100  A    between atoms: _242  and  _245
REMARK  101  A    between atoms: _245  and  _246
REMARK  102  A    between atoms: _249  and  _251
REMARK  103  A    between atoms: _251  and  _252
REMARK  104  A    between atoms: _251  and  _254
REMARK  105  A    between atoms: _254  and  _255
REMARK  106  A    between atoms: _258  and  _260
REMARK  107  A    between atoms: _260  and  _261
REMARK  108  A    between atoms: _263  and  _265
REMARK  109  A    between atoms: _265  and  _266
REMARK  110  A    between atoms: _265  and  _268
REMARK  111  A    between atoms: _269  and  _270
REMARK  112  A    between atoms: _270  and  _271
REMARK  113  A    between atoms: _280  and  _282
REMARK  114  A    between atoms: _282  and  _283
REMARK  115  A    between atoms: _282  and  _285
REMARK  116  A    between atoms: _285  and  _286
REMARK  117  A    between atoms: _291  and  _293
REMARK  118  A    between atoms: _293  and  _294
REMARK  119  A    between atoms: _293  and  _296
REMARK  120  A    between atoms: _296  and  _297
REMARK  121  A    between atoms: _297  and  _298
REMARK  122  A    between atoms: _298  and  _299
REMARK  123  A    between atoms: _308  and  _310
REMARK  124  A    between atoms: _310  and  _311
REMARK  125  A    between atoms: _310  and  _313
REMARK  126  A    between atoms: _313  and  _314
REMARK  127  A    between atoms: _317  and  _319
REMARK  128  A    between atoms: _319  and  _320
REMARK  129  A    between atoms: _319  and  _322
REMARK  130  A    between atoms: _322  and  _323
REMARK  131  A    between atoms: _326  and  _328
REMARK  132  A    between atoms: _328  and  _329
REMARK  133  A    between atoms: _328  and  _331
REMARK  134  A    between atoms: _331  and  _332
REMARK  135  A    between atoms: _335  and  _337
REMARK  136  A    between atoms: _337  and  _338
REMARK  137  A    between atoms: _337  and  _340
REMARK  138  A    between atoms: _340  and  _341
REMARK  139  A    between atoms: _344  and  _346
REMARK  140  A    between atoms: _346  and  _347
REMARK  141  A    between atoms: _349  and  _351
REMARK  142  A    between atoms: _351  and  _352
REMARK  143  A    between atoms: _355  and  _357
REMARK  144  A    between atoms: _357  and  _358
REMARK  145  A    between atoms: _357  and  _360
REMARK  146  A    between atoms: _360  and  _361
REMARK  147  A    between atoms: _364  and  _366
REMARK  148  A    between atoms: _366  and  _367
REMARK  149  A    between atoms: _366  and  _369
REMARK  150  A    between atoms: _369  and  _370
REMARK  151  A    between atoms: _373  and  _375
REMARK  152  A    between atoms: _375  and  _376
REMARK  153  A    between atoms: _375  and  _378
REMARK  154  A    between atoms: _378  and  _379
REMARK  155  A    between atoms: _382  and  _384
REMARK  156  A    between atoms: _384  and  _385
REMARK  157  A    between atoms: _384  and  _387
REMARK  158  A    between atoms: _390  and  _392
REMARK  159  A    between atoms: _392  and  _393
REMARK  160  A    between atoms: _392  and  _395
REMARK  161  A    between atoms: _395  and  _396
REMARK  162  A    between atoms: _396  and  _397
REMARK  163  A    between atoms: _397  and  _398
REMARK  164  A    between atoms: _398  and  _399
REMARK  165  A    between atoms: _403  and  _405
REMARK  166  A    between atoms: _405  and  _406
REMARK  167  A    between atoms: _405  and  _408
REMARK  168  A    between atoms: _408  and  _409
REMARK  169  A    between atoms: _409  and  _410
REMARK  170  A    between atoms: _412  and  _414
REMARK  171  A    between atoms: _414  and  _415
REMARK  172  A    between atoms: _414  and  _417
REMARK  173  A    between atoms: _417  and  _418
REMARK  174  A    between atoms: _421  and  _423
REMARK  175  A    between atoms: _423  and  _424
REMARK  176  A    between atoms: _426  and  _428
REMARK  177  A    between atoms: _428  and  _429
REMARK  178  A    between atoms: _431  and  _433
REMARK  179  A    between atoms: _433  and  _434
REMARK  180  A    between atoms: _433  and  _436
REMARK  181  A    between atoms: _436  and  _437
REMARK  182  A    between atoms: _440  and  _442
REMARK  183  A    between atoms: _442  and  _443
REMARK  184  A    between atoms: _445  and  _447
REMARK  185  A    between atoms: _447  and  _448
REMARK  186  A    between atoms: _450  and  _452
REMARK  187  A    between atoms: _452  and  _453
REMARK  188  A    between atoms: _452  and  _455
REMARK  189  A    between atoms: _455  and  _456
REMARK  190  A    between atoms: _462  and  _464
REMARK  191  A    between atoms: _464  and  _465
REMARK  192  A    between atoms: _464  and  _467
REMARK  193  A    between atoms: _467  and  _468
REMARK  194  A    between atoms: _471  and  _473
REMARK  195  A    between atoms: _473  and  _474
REMARK  196  A    between atoms: _473  and  _476
REMARK  197  A    between atoms: _476  and  _477
REMARK  198  A    between atoms: _480  and  _482
REMARK  199  A    between atoms: _482  and  _483
REMARK  200  A    between atoms: _482  and  _485
REMARK  201  A    between atoms: _485  and  _486
REMARK  202  A    between atoms: _490  and  _491
REMARK  203  A    between atoms: _496  and  _498
REMARK  204  A    between atoms: _498  and  _499
REMARK  205  A    between atoms: _498  and  _501
REMARK  206  A    between atoms: _504  and  _506
REMARK  207  A    between atoms: _506  and  _507
REMARK  208  A    between atoms: _506  and  _509
REMARK  209  A    between atoms: _509  and  _510
REMARK  210  A    between atoms: _515  and  _517
REMARK  211  A    between atoms: _517  and  _518
REMARK  212  A    between atoms: _517  and  _520
REMARK  213  A    between atoms: _520  and  _521
REMARK  214  A    between atoms: _524  and  _526
REMARK  215  A    between atoms: _526  and  _527
REMARK  216  A    between atoms: _529  and  _531
REMARK  217  A    between atoms: _531  and  _532
REMARK  218  A    between atoms: _531  and  _534
REMARK  219  A    between atoms: _534  and  _535
REMARK  220  A    between atoms: _535  and  _536
REMARK  221  A    between atoms: _536  and  _537
REMARK  222  A    between atoms: _546  and  _548
REMARK  223  A    between atoms: _548  and  _549
REMARK  224  A    between atoms: _548  and  _551
REMARK  225  A    between atoms: _551  and  _552
REMARK                            x       y       z     vdW  Elec       q    Type
REMARK                         _______ _______ _______ _____ _____    ______ ____
ROOT
ATOM      1  O   HOH     1       9.393  14.480  18.510  0.00  0.00    +0.000 OA
ENDROOT
TORSDOF 0
REMARK  Name = ../refined-set-2016/4dfg/4dfg_pocket.pdb
REMARK  225 active torsions:
REMARK  status: ('A' for Active; 'I' for Inactive)
REMARK    1  A    between atoms: _1  and  _3
REMARK    2  A    between atoms: _3  and  _4
REMARK    3  A    between atoms: _3  and  _6
REMARK    4  A    between atoms: _6  and  _7
REMARK    5  A    between atoms: _7  and  _8
REMARK    6  A    between atoms: _8  and  _9
REMARK    7  A    between atoms: _18  and  _20
REMARK    8  A    between atoms: _20  and  _21
REMARK    9  A    between atoms: _20  and  _23
REMARK   10  A    between atoms: _23  and  _24
REMARK   11  A    between atoms: _27  and  _29
REMARK   12  A    between atoms: _29  and  _30
REMARK   13  A    between atoms: _29  and  _32
REMARK   14  A    between atoms: _32  and  _33
REMARK   15  A    between atoms: _36  and  _38
REMARK   16  A    between atoms: _38  and  _39
REMARK   17  A    between atoms: _38  and  _41
REMARK   18  A    between atoms: _41  and  _42
REMARK   19  A    between atoms: _45  and  _47
REMARK   20  A    between atoms: _47  and  _48
REMARK   21  A    between atoms: _47  and  _50
REMARK   22  A    between atoms: _50  and  _51
REMARK   23  A    between atoms: _54  and  _56
REMARK   24  A    between atoms: _56  and  _57
REMARK   25  A    between atoms: _59  and  _61
REMARK   26  A    between atoms: _61  and  _62
REMARK   27  A    between atoms: _65  and  _67
REMARK   28  A    between atoms: _67  and  _68
REMARK   29  A    between atoms: _67  and  _70
REMARK   30  A    between atoms: _70  and  _71
REMARK   31  A    between atoms: _74  and  _76
REMARK   32  A    between atoms: _76  and  _77
REMARK   33  A    between atoms: _76  and  _79
REMARK   34  A    between atoms: _79  and  _80
REMARK   35  A    between atoms: _83  and  _85
REMARK   36  A    between atoms: _85  and  _86
REMARK   37  A    between atoms: _85  and  _88
REMARK   38  A    between atoms: _88  and  _89
REMARK   39  A    between atoms: _92  and  _94
REMARK   40  A    between atoms: _94  and  _95
REMARK   41  A    between atoms: _94  and  _97
REMARK   42  A    between atoms: _100  and  _102
REMARK   43  A    between atoms: _102  and  _103
REMARK   44  A    between atoms: _102  and  _105
REMARK   45  A    between atoms: _105  and  _106
REMARK   46  A    between atoms: _106  and  _107
REMARK   47  A    between atoms: _107  and  _108
REMARK   48  A    between atoms: _108  and  _109
REMARK   49  A    between atoms: _113  and  _115
REMARK   50  A    between atoms: _115  and  _116
REMARK   51  A    between atoms: _115  and  _118
REMARK   52  A    between atoms: _118  and  _119
REMARK   53  A    between atoms: _119  and  _120
REMARK   54  A    between atoms: _122  and  _124
REMARK   55  A    between atoms: _124  and  _125
REMARK   56  A    between atoms: _124  and  _127
REMARK   57  A    between atoms: _127  and  _128
REMARK   58  A    between atoms: _131  and  _133
REMARK   59  A    between atoms: _133  and  _134
REMARK   60  A    between atoms: _136  and  _138
REMARK   61  A    between atoms: _138  and  _139
REMARK   62  A    between atoms: _141  and  _143
REMARK   63  A    between atoms: _143  and  _144
REMARK   64  A    between atoms: _143  and  _146
REMARK   65  A    between atoms: _146  and  _147
REMARK   66  A    between atoms: _150  and  _152
REMARK   67  A    between atoms: _152  and  _153
REMARK   68  A    between atoms: _155  and  _157
REMARK   69  A    between atoms: _157  and  _158
REMARK   70  A    between atoms: _160  and  _162
REMARK   71  A    between atoms: _162  and  _163
REMARK   72  A    between atoms: _162  and  _165
REMARK   73  A    between atoms: _165  and  _166
REMARK   74  A    between atoms: _172  and  _174
REMARK   75  A    between atoms: _174  and  _175
REMARK   76  A    between atoms: _174  and  _177
REMARK   77  A    between atoms: _177  and  _178
REMARK   78  A    between atoms: _181  and  _183
REMARK   79  A    between atoms: _183  and  _184
REMARK   80  A    between atoms: _183  and  _186
REMARK   81  A    between atoms: _189  and  _191
REMARK   82  A    between atoms: _191  and  _192
REMARK   83  A    between atoms: _191  and  _194
REMARK   84  A    between atoms: _194  and  _195
REMARK   85  A    between atoms: _199  and  _200
REMARK   86  A    between atoms: _205  and  _207
REMARK   87  A    between atoms: _207  and  _208
REMARK   88  A    between atoms: _207  and  _210
REMARK   89  A    between atoms: _210  and  _211
REMARK   90  A    between atoms: _215  and  _216
REMARK   91  A    between atoms: _221  and  _223
REMARK   92  A    between atoms: _223  and  _224
REMARK   93  A    between atoms: _223  and  _226
REMARK   94  A    between atoms: _229  and  _231
REMARK   95  A    between atoms: _231  and  _232
REMARK   96  A    between atoms: _231  and  _234
REMARK   97  A    between atoms: _234  and  _235
REMARK   98  A    between atoms: _240  and  _242
REMARK   99  A    between atoms: _242  and  _243
REMARK  100  A    between atoms: _242  and  _245
REMARK  101  A    between atoms: _245  and  _246
REMARK  102  A    between atoms: _249  and  _251
REMARK  103  A    between atoms: _251  and  _252
REMARK  104  A    between atoms: _251  and  _254
REMARK  105  A    between atoms: _254  and  _255
REMARK  106  A    between atoms: _258  and  _260
REMARK  107  A    between atoms: _260  and  _261
REMARK  108  A    between atoms: _263  and  _265
REMARK  109  A    between atoms: _265  and  _266
REMARK  110  A    between atoms: _265  and  _268
REMARK  111  A    between atoms: _269  and  _270
REMARK  112  A    between atoms: _270  and  _271
REMARK  113  A    between atoms: _280  and  _282
REMARK  114  A    between atoms: _282  and  _283
REMARK  115  A    between atoms: _282  and  _285
REMARK  116  A    between atoms: _285  and  _286
REMARK  117  A    between atoms: _291  and  _293
REMARK  118  A    between atoms: _293  and  _294
REMARK  119  A    between atoms: _293  and  _296
REMARK  120  A    between atoms: _296  and  _297
REMARK  121  A    between atoms: _297  and  _298
REMARK  122  A    between atoms: _298  and  _299
REMARK  123  A    between atoms: _308  and  _310
REMARK  124  A    between atoms: _310  and  _311
REMARK  125  A    between atoms: _310  and  _313
REMARK  126  A    between atoms: _313  and  _314
REMARK  127  A    between atoms: _317  and  _319
REMARK  128  A    between atoms: _319  and  _320
REMARK  129  A    between atoms: _319  and  _322
REMARK  130  A    between atoms: _322  and  _323
REMARK  131  A    between atoms: _326  and  _328
REMARK  132  A    between atoms: _328  and  _329
REMARK  133  A    between atoms: _328  and  _331
REMARK  134  A    between atoms: _331  and  _332
REMARK  135  A    between atoms: _335  and  _337
REMARK  136  A    between atoms: _337  and  _338
REMARK  137  A    between atoms: _337  and  _340
REMARK  138  A    between atoms: _340  and  _341
REMARK  139  A    between atoms: _344  and  _346
REMARK  140  A    between atoms: _346  and  _347
REMARK  141  A    between atoms: _349  and  _351
REMARK  142  A    between atoms: _351  and  _352
REMARK  143  A    between atoms: _355  and  _357
REMARK  144  A    between atoms: _357  and  _358
REMARK  145  A    between atoms: _357  and  _360
REMARK  146  A    between atoms: _360  and  _361
REMARK  147  A    between atoms: _364  and  _366
REMARK  148  A    between atoms: _366  and  _367
REMARK  149  A    between atoms: _366  and  _369
REMARK  150  A    between atoms: _369  and  _370
REMARK  151  A    between atoms: _373  and  _375
REMARK  152  A    between atoms: _375  and  _376
REMARK  153  A    between atoms: _375  and  _378
REMARK  154  A    between atoms: _378  and  _379
REMARK  155  A    between atoms: _382  and  _384
REMARK  156  A    between atoms: _384  and  _385
REMARK  157  A    between atoms: _384  and  _387
REMARK  158  A    between atoms: _390  and  _392
REMARK  159  A    between atoms: _392  and  _393
REMARK  160  A    between atoms: _392  and  _395
REMARK  161  A    between atoms: _395  and  _396
REMARK  162  A    between atoms: _396  and  _397
REMARK  163  A    between atoms: _397  and  _398
REMARK  164  A    between atoms: _398  and  _399
REMARK  165  A    between atoms: _403  and  _405
REMARK  166  A    between atoms: _405  and  _406
REMARK  167  A    between atoms: _405  and  _408
REMARK  168  A    between atoms: _408  and  _409
REMARK  169  A    between atoms: _409  and  _410
REMARK  170  A    between atoms: _412  and  _414
REMARK  171  A    between atoms: _414  and  _415
REMARK  172  A    between atoms: _414  and  _417
REMARK  173  A    between atoms: _417  and  _418
REMARK  174  A    between atoms: _421  and  _423
REMARK  175  A    between atoms: _423  and  _424
REMARK  176  A    between atoms: _426  and  _428
REMARK  177  A    between atoms: _428  and  _429
REMARK  178  A    between atoms: _431  and  _433
REMARK  179  A    between atoms: _433  and  _434
REMARK  180  A    between atoms: _433  and  _436
REMARK  181  A    between atoms: _436  and  _437
REMARK  182  A    between atoms: _440  and  _442
REMARK  183  A    between atoms: _442  and  _443
REMARK  184  A    between atoms: _445  and  _447
REMARK  185  A    between atoms: _447  and  _448
REMARK  186  A    between atoms: _450  and  _452
REMARK  187  A    between atoms: _452  and  _453
REMARK  188  A    between atoms: _452  and  _455
REMARK  189  A    between atoms: _455  and  _456
REMARK  190  A    between atoms: _462  and  _464
REMARK  191  A    between atoms: _464  and  _465
REMARK  192  A    between atoms: _464  and  _467
REMARK  193  A    between atoms: _467  and  _468
REMARK  194  A    between atoms: _471  and  _473
REMARK  195  A    between atoms: _473  and  _474
REMARK  196  A    between atoms: _473  and  _476
REMARK  197  A    between atoms: _476  and  _477
REMARK  198  A    between atoms: _480  and  _482
REMARK  199  A    between atoms: _482  and  _483
REMARK  200  A    between atoms: _482  and  _485
REMARK  201  A    between atoms: _485  and  _486
REMARK  202  A    between atoms: _490  and  _491
REMARK  203  A    between atoms: _496  and  _498
REMARK  204  A    between atoms: _498  and  _499
REMARK  205  A    between atoms: _498  and  _501
REMARK  206  A    between atoms: _504  and  _506
REMARK  207  A    between atoms: _506  and  _507
REMARK  208  A    between atoms: _506  and  _509
REMARK  209  A    between atoms: _509  and  _510
REMARK  210  A    between atoms: _515  and  _517
REMARK  211  A    between atoms: _517  and  _518
REMARK  212  A    between atoms: _517  and  _520
REMARK  213  A    between atoms: _520  and  _521
REMARK  214  A    between atoms: _524  and  _526
REMARK  215  A    between atoms: _526  and  _527
REMARK  216  A    between atoms: _529  and  _531
REMARK  217  A    between atoms: _531  and  _532
REMARK  218  A    between atoms: _531  and  _534
REMARK  219  A    between atoms: _534  and  _535
REMARK  220  A    between atoms: _535  and  _536
REMARK  221  A    between atoms: _536  and  _537
REMARK  222  A    between atoms: _546  and  _548
REMARK  223  A    between atoms: _548  and  _549
REMARK  224  A    between atoms: _548  and  _551
REMARK  225  A    between atoms: _551  and  _552
REMARK                            x       y       z     vdW  Elec       q    Type
REMARK                         _______ _______ _______ _____ _____    ______ ____
ROOT
ATOM      1  O   HOH     1      11.005  14.639  13.778  0.00  0.00    +0.000 OA
ENDROOT
TORSDOF 0
REMARK  Name = ../refined-set-2016/4dfg/4dfg_pocket.pdb
REMARK  225 active torsions:
REMARK  status: ('A' for Active; 'I' for Inactive)
REMARK    1  A    between atoms: _1  and  _3
REMARK    2  A    between atoms: _3  and  _4
REMARK    3  A    between atoms: _3  and  _6
REMARK    4  A    between atoms: _6  and  _7
REMARK    5  A    between atoms: _7  and  _8
REMARK    6  A    between atoms: _8  and  _9
REMARK    7  A    between atoms: _18  and  _20
REMARK    8  A    between atoms: _20  and  _21
REMARK    9  A    between atoms: _20  and  _23
REMARK   10  A    between atoms: _23  and  _24
REMARK   11  A    between atoms: _27  and  _29
REMARK   12  A    between atoms: _29  and  _30
REMARK   13  A    between atoms: _29  and  _32
REMARK   14  A    between atoms: _32  and  _33
REMARK   15  A    between atoms: _36  and  _38
REMARK   16  A    between atoms: _38  and  _39
REMARK   17  A    between atoms: _38  and  _41
REMARK   18  A    between atoms: _41  and  _42
REMARK   19  A    between atoms: _45  and  _47
REMARK   20  A    between atoms: _47  and  _48
REMARK   21  A    between atoms: _47  and  _50
REMARK   22  A    between atoms: _50  and  _51
REMARK   23  A    between atoms: _54  and  _56
REMARK   24  A    between atoms: _56  and  _57
REMARK   25  A    between atoms: _59  and  _61
REMARK   26  A    between atoms: _61  and  _62
REMARK   27  A    between atoms: _65  and  _67
REMARK   28  A    between atoms: _67  and  _68
REMARK   29  A    between atoms: _67  and  _70
REMARK   30  A    between atoms: _70  and  _71
REMARK   31  A    between atoms: _74  and  _76
REMARK   32  A    between atoms: _76  and  _77
REMARK   33  A    between atoms: _76  and  _79
REMARK   34  A    between atoms: _79  and  _80
REMARK   35  A    between atoms: _83  and  _85
REMARK   36  A    between atoms: _85  and  _86
REMARK   37  A    between atoms: _85  and  _88
REMARK   38  A    between atoms: _88  and  _89
REMARK   39  A    between atoms: _92  and  _94
REMARK   40  A    between atoms: _94  and  _95
REMARK   41  A    between atoms: _94  and  _97
REMARK   42  A    between atoms: _100  and  _102
REMARK   43  A    between atoms: _102  and  _103
REMARK   44  A    between atoms: _102  and  _105
REMARK   45  A    between atoms: _105  and  _106
REMARK   46  A    between atoms: _106  and  _107
REMARK   47  A    between atoms: _107  and  _108
REMARK   48  A    between atoms: _108  and  _109
REMARK   49  A    between atoms: _113  and  _115
REMARK   50  A    between atoms: _115  and  _116
REMARK   51  A    between atoms: _115  and  _118
REMARK   52  A    between atoms: _118  and  _119
REMARK   53  A    between atoms: _119  and  _120
REMARK   54  A    between atoms: _122  and  _124
REMARK   55  A    between atoms: _124  and  _125
REMARK   56  A    between atoms: _124  and  _127
REMARK   57  A    between atoms: _127  and  _128
REMARK   58  A    between atoms: _131  and  _133
REMARK   59  A    between atoms: _133  and  _134
REMARK   60  A    between atoms: _136  and  _138
REMARK   61  A    between atoms: _138  and  _139
REMARK   62  A    between atoms: _141  and  _143
REMARK   63  A    between atoms: _143  and  _144
REMARK   64  A    between atoms: _143  and  _146
REMARK   65  A    between atoms: _146  and  _147
REMARK   66  A    between atoms: _150  and  _152
REMARK   67  A    between atoms: _152  and  _153
REMARK   68  A    between atoms: _155  and  _157
REMARK   69  A    between atoms: _157  and  _158
REMARK   70  A    between atoms: _160  and  _162
REMARK   71  A    between atoms: _162  and  _163
REMARK   72  A    between atoms: _162  and  _165
REMARK   73  A    between atoms: _165  and  _166
REMARK   74  A    between atoms: _172  and  _174
REMARK   75  A    between atoms: _174  and  _175
REMARK   76  A    between atoms: _174  and  _177
REMARK   77  A    between atoms: _177  and  _178
REMARK   78  A    between atoms: _181  and  _183
REMARK   79  A    between atoms: _183  and  _184
REMARK   80  A    between atoms: _183  and  _186
REMARK   81  A    between atoms: _189  and  _191
REMARK   82  A    between atoms: _191  and  _192
REMARK   83  A    between atoms: _191  and  _194
REMARK   84  A    between atoms: _194  and  _195
REMARK   85  A    between atoms: _199  and  _200
REMARK   86  A    between atoms: _205  and  _207
REMARK   87  A    between atoms: _207  and  _208
REMARK   88  A    between atoms: _207  and  _210
REMARK   89  A    between atoms: _210  and  _211
REMARK   90  A    between atoms: _215  and  _216
REMARK   91  A    between atoms: _221  and  _223
REMARK   92  A    between atoms: _223  and  _224
REMARK   93  A    between atoms: _223  and  _226
REMARK   94  A    between atoms: _229  and  _231
REMARK   95  A    between atoms: _231  and  _232
REMARK   96  A    between atoms: _231  and  _234
REMARK   97  A    between atoms: _234  and  _235
REMARK   98  A    between atoms: _240  and  _242
REMARK   99  A    between atoms: _242  and  _243
REMARK  100  A    between atoms: _242  and  _245
REMARK  101  A    between atoms: _245  and  _246
REMARK  102  A    between atoms: _249  and  _251
REMARK  103  A    between atoms: _251  and  _252
REMARK  104  A    between atoms: _251  and  _254
REMARK  105  A    between atoms: _254  and  _255
REMARK  106  A    between atoms: _258  and  _260
REMARK  107  A    between atoms: _260  and  _261
REMARK  108  A    between atoms: _263  and  _265
REMARK  109  A    between atoms: _265  and  _266
REMARK  110  A    between atoms: _265  and  _268
REMARK  111  A    between atoms: _269  and  _270
REMARK  112  A    between atoms: _270  and  _271
REMARK  113  A    between atoms: _280  and  _282
REMARK  114  A    between atoms: _282  and  _283
REMARK  115  A    between atoms: _282  and  _285
REMARK  116  A    between atoms: _285  and  _286
REMARK  117  A    between atoms: _291  and  _293
REMARK  118  A    between atoms: _293  and  _294
REMARK  119  A    between atoms: _293  and  _296
REMARK  120  A    between atoms: _296  and  _297
REMARK  121  A    between atoms: _297  and  _298
REMARK  122  A    between atoms: _298  and  _299
REMARK  123  A    between atoms: _308  and  _310
REMARK  124  A    between atoms: _310  and  _311
REMARK  125  A    between atoms: _310  and  _313
REMARK  126  A    between atoms: _313  and  _314
REMARK  127  A    between atoms: _317  and  _319
REMARK  128  A    between atoms: _319  and  _320
REMARK  129  A    between atoms: _319  and  _322
REMARK  130  A    between atoms: _322  and  _323
REMARK  131  A    between atoms: _326  and  _328
REMARK  132  A    between atoms: _328  and  _329
REMARK  133  A    between atoms: _328  and  _331
REMARK  134  A    between atoms: _331  and  _332
REMARK  135  A    between atoms: _335  and  _337
REMARK  136  A    between atoms: _337  and  _338
REMARK  137  A    between atoms: _337  and  _340
REMARK  138  A    between atoms: _340  and  _341
REMARK  139  A    between atoms: _344  and  _346
REMARK  140  A    between atoms: _346  and  _347
REMARK  141  A    between atoms: _349  and  _351
REMARK  142  A    between atoms: _351  and  _352
REMARK  143  A    between atoms: _355  and  _357
REMARK  144  A    between atoms: _357  and  _358
REMARK  145  A    between atoms: _357  and  _360
REMARK  146  A    between atoms: _360  and  _361
REMARK  147  A    between atoms: _364  and  _366
REMARK  148  A    between atoms: _366  and  _367
REMARK  149  A    between atoms: _366  and  _369
REMARK  150  A    between atoms: _369  and  _370
REMARK  151  A    between atoms: _373  and  _375
REMARK  152  A    between atoms: _375  and  _376
REMARK  153  A    between atoms: _375  and  _378
REMARK  154  A    between atoms: _378  and  _379
REMARK  155  A    between atoms: _382  and  _384
REMARK  156  A    between atoms: _384  and  _385
REMARK  157  A    between atoms: _384  and  _387
REMARK  158  A    between atoms: _390  and  _392
REMARK  159  A    between atoms: _392  and  _393
REMARK  160  A    between atoms: _392  and  _395
REMARK  161  A    between atoms: _395  and  _396
REMARK  162  A    between atoms: _396  and  _397
REMARK  163  A    between atoms: _397  and  _398
REMARK  164  A    between atoms: _398  and  _399
REMARK  165  A    between atoms: _403  and  _405
REMARK  166  A    between atoms: _405  and  _406
REMARK  167  A    between atoms: _405  and  _408
REMARK  168  A    between atoms: _408  and  _409
REMARK  169  A    between atoms: _409  and  _410
REMARK  170  A    between atoms: _412  and  _414
REMARK  171  A    between atoms: _414  and  _415
REMARK  172  A    between atoms: _414  and  _417
REMARK  173  A    between atoms: _417  and  _418
REMARK  174  A    between atoms: _421  and  _423
REMARK  175  A    between atoms: _423  and  _424
REMARK  176  A    between atoms: _426  and  _428
REMARK  177  A    between atoms: _428  and  _429
REMARK  178  A    between atoms: _431  and  _433
REMARK  179  A    between atoms: _433  and  _434
REMARK  180  A    between atoms: _433  and  _436
REMARK  181  A    between atoms: _436  and  _437
REMARK  182  A    between atoms: _440  and  _442
REMARK  183  A    between atoms: _442  and  _443
REMARK  184  A    between atoms: _445  and  _447
REMARK  185  A    between atoms: _447  and  _448
REMARK  186  A    between atoms: _450  and  _452
REMARK  187  A    between atoms: _452  and  _453
REMARK  188  A    between atoms: _452  and  _455
REMARK  189  A    between atoms: _455  and  _456
REMARK  190  A    between atoms: _462  and  _464
REMARK  191  A    between atoms: _464  and  _465
REMARK  192  A    between atoms: _464  and  _467
REMARK  193  A    between atoms: _467  and  _468
REMARK  194  A    between atoms: _471  and  _473
REMARK  195  A    between atoms: _473  and  _474
REMARK  196  A    between atoms: _473  and  _476
REMARK  197  A    between atoms: _476  and  _477
REMARK  198  A    between atoms: _480  and  _482
REMARK  199  A    between atoms: _482  and  _483
REMARK  200  A    between atoms: _482  and  _485
REMARK  201  A    between atoms: _485  and  _486
REMARK  202  A    between atoms: _490  and  _491
REMARK  203  A    between atoms: _496  and  _498
REMARK  204  A    between atoms: _498  and  _499
REMARK  205  A    between atoms: _498  and  _501
REMARK  206  A    between atoms: _504  and  _506
REMARK  207  A    between atoms: _506  and  _507
REMARK  208  A    between atoms: _506  and  _509
REMARK  209  A    between atoms: _509  and  _510
REMARK  210  A    between atoms: _515  and  _517
REMARK  211  A    between atoms: _517  and  _518
REMARK  212  A    between atoms: _517  and  _520
REMARK  213  A    between atoms: _520  and  _521
REMARK  214  A    between atoms: _524  and  _526
REMARK  215  A    between atoms: _526  and  _527
REMARK  216  A    between atoms: _529  and  _531
REMARK  217  A    between atoms: _531  and  _532
REMARK  218  A    between atoms: _531  and  _534
REMARK  219  A    between atoms: _534  and  _535
REMARK  220  A    between atoms: _535  and  _536
REMARK  221  A    between atoms: _536  and  _537
REMARK  222  A    between atoms: _546  and  _548
REMARK  223  A    between atoms: _548  and  _549
REMARK  224  A    between atoms: _548  and  _551
REMARK  225  A    between atoms: _551  and  _552
REMARK                            x       y       z     vdW  Elec       q    Type
REMARK                         _______ _______ _______ _____ _____    ______ ____
ROOT
ATOM      1  O   UNL     1      25.481  25.761  22.817  0.00  0.00    +0.000 OA
ATOM      2  O   UNL     1      25.852  25.829  24.171  0.00  0.00    +0.000 OA
ENDROOT
TORSDOF 0
REMARK  Name = ../refined-set-2016/4dfg/4dfg_pocket.pdb
REMARK  225 active torsions:
REMARK  status: ('A' for Active; 'I' for Inactive)
REMARK    1  A    between atoms: _1  and  _3
REMARK    2  A    between atoms: _3  and  _4
REMARK    3  A    between atoms: _3  and  _6
REMARK    4  A    between atoms: _6  and  _7
REMARK    5  A    between atoms: _7  and  _8
REMARK    6  A    between atoms: _8  and  _9
REMARK    7  A    between atoms: _18  and  _20
REMARK    8  A    between atoms: _20  and  _21
REMARK    9  A    between atoms: _20  and  _23
REMARK   10  A    between atoms: _23  and  _24
REMARK   11  A    between atoms: _27  and  _29
REMARK   12  A    between atoms: _29  and  _30
REMARK   13  A    between atoms: _29  and  _32
REMARK   14  A    between atoms: _32  and  _33
REMARK   15  A    between atoms: _36  and  _38
REMARK   16  A    between atoms: _38  and  _39
REMARK   17  A    between atoms: _38  and  _41
REMARK   18  A    between atoms: _41  and  _42
REMARK   19  A    between atoms: _45  and  _47
REMARK   20  A    between atoms: _47  and  _48
REMARK   21  A    between atoms: _47  and  _50
REMARK   22  A    between atoms: _50  and  _51
REMARK   23  A    between atoms: _54  and  _56
REMARK   24  A    between atoms: _56  and  _57
REMARK   25  A    between atoms: _59  and  _61
REMARK   26  A    between atoms: _61  and  _62
REMARK   27  A    between atoms: _65  and  _67
REMARK   28  A    between atoms: _67  and  _68
REMARK   29  A    between atoms: _67  and  _70
REMARK   30  A    between atoms: _70  and  _71
REMARK   31  A    between atoms: _74  and  _76
REMARK   32  A    between atoms: _76  and  _77
REMARK   33  A    between atoms: _76  and  _79
REMARK   34  A    between atoms: _79  and  _80
REMARK   35  A    between atoms: _83  and  _85
REMARK   36  A    between atoms: _85  and  _86
REMARK   37  A    between atoms: _85  and  _88
REMARK   38  A    between atoms: _88  and  _89
REMARK   39  A    between atoms: _92  and  _94
REMARK   40  A    between atoms: _94  and  _95
REMARK   41  A    between atoms: _94  and  _97
REMARK   42  A    between atoms: _100  and  _102
REMARK   43  A    between atoms: _102  and  _103
REMARK   44  A    between atoms: _102  and  _105
REMARK   45  A    between atoms: _105  and  _106
REMARK   46  A    between atoms: _106  and  _107
REMARK   47  A    between atoms: _107  and  _108
REMARK   48  A    between atoms: _108  and  _109
REMARK   49  A    between atoms: _113  and  _115
REMARK   50  A    between atoms: _115  and  _116
REMARK   51  A    between atoms: _115  and  _118
REMARK   52  A    between atoms: _118  and  _119
REMARK   53  A    between atoms: _119  and  _120
REMARK   54  A    between atoms: _122  and  _124
REMARK   55  A    between atoms: _124  and  _125
REMARK   56  A    between atoms: _124  and  _127
REMARK   57  A    between atoms: _127  and  _128
REMARK   58  A    between atoms: _131  and  _133
REMARK   59  A    between atoms: _133  and  _134
REMARK   60  A    between atoms: _136  and  _138
REMARK   61  A    between atoms: _138  and  _139
REMARK   62  A    between atoms: _141  and  _143
REMARK   63  A    between atoms: _143  and  _144
REMARK   64  A    between atoms: _143  and  _146
REMARK   65  A    between atoms: _146  and  _147
REMARK   66  A    between atoms: _150  and  _152
REMARK   67  A    between atoms: _152  and  _153
REMARK   68  A    between atoms: _155  and  _157
REMARK   69  A    between atoms: _157  and  _158
REMARK   70  A    between atoms: _160  and  _162
REMARK   71  A    between atoms: _162  and  _163
REMARK   72  A    between atoms: _162  and  _165
REMARK   73  A    between atoms: _165  and  _166
REMARK   74  A    between atoms: _172  and  _174
REMARK   75  A    between atoms: _174  and  _175
REMARK   76  A    between atoms: _174  and  _177
REMARK   77  A    between atoms: _177  and  _178
REMARK   78  A    between atoms: _181  and  _183
REMARK   79  A    between atoms: _183  and  _184
REMARK   80  A    between atoms: _183  and  _186
REMARK   81  A    between atoms: _189  and  _191
REMARK   82  A    between atoms: _191  and  _192
REMARK   83  A    between atoms: _191  and  _194
REMARK   84  A    between atoms: _194  and  _195
REMARK   85  A    between atoms: _199  and  _200
REMARK   86  A    between atoms: _205  and  _207
REMARK   87  A    between atoms: _207  and  _208
REMARK   88  A    between atoms: _207  and  _210
REMARK   89  A    between atoms: _210  and  _211
REMARK   90  A    between atoms: _215  and  _216
REMARK   91  A    between atoms: _221  and  _223
REMARK   92  A    between atoms: _223  and  _224
REMARK   93  A    between atoms: _223  and  _226
REMARK   94  A    between atoms: _229  and  _231
REMARK   95  A    between atoms: _231  and  _232
REMARK   96  A    between atoms: _231  and  _234
REMARK   97  A    between atoms: _234  and  _235
REMARK   98  A    between atoms: _240  and  _242
REMARK   99  A    between atoms: _242  and  _243
REMARK  100  A    between atoms: _242  and  _245
REMARK  101  A    between atoms: _245  and  _246
REMARK  102  A    between atoms: _249  and  _251
REMARK  103  A    between atoms: _251  and  _252
REMARK  104  A    between atoms: _251  and  _254
REMARK  105  A    between atoms: _254  and  _255
REMARK  106  A    between atoms: _258  and  _260
REMARK  107  A    between atoms: _260  and  _261
REMARK  108  A    between atoms: _263  and  _265
REMARK  109  A    between atoms: _265  and  _266
REMARK  110  A    between atoms: _265  and  _268
REMARK  111  A    between atoms: _269  and  _270
REMARK  112  A    between atoms: _270  and  _271
REMARK  113  A    between atoms: _280  and  _282
REMARK  114  A    between atoms: _282  and  _283
REMARK  115  A    between atoms: _282  and  _285
REMARK  116  A    between atoms: _285  and  _286
REMARK  117  A    between atoms: _291  and  _293
REMARK  118  A    between atoms: _293  and  _294
REMARK  119  A    between atoms: _293  and  _296
REMARK  120  A    between atoms: _296  and  _297
REMARK  121  A    between atoms: _297  and  _298
REMARK  122  A    between atoms: _298  and  _299
REMARK  123  A    between atoms: _308  and  _310
REMARK  124  A    between atoms: _310  and  _311
REMARK  125  A    between atoms: _310  and  _313
REMARK  126  A    between atoms: _313  and  _314
REMARK  127  A    between atoms: _317  and  _319
REMARK  128  A    between atoms: _319  and  _320
REMARK  129  A    between atoms: _319  and  _322
REMARK  130  A    between atoms: _322  and  _323
REMARK  131  A    between atoms: _326  and  _328
REMARK  132  A    between atoms: _328  and  _329
REMARK  133  A    between atoms: _328  and  _331
REMARK  134  A    between atoms: _331  and  _332
REMARK  135  A    between atoms: _335  and  _337
REMARK  136  A    between atoms: _337  and  _338
REMARK  137  A    between atoms: _337  and  _340
REMARK  138  A    between atoms: _340  and  _341
REMARK  139  A    between atoms: _344  and  _346
REMARK  140  A    between atoms: _346  and  _347
REMARK  141  A    between atoms: _349  and  _351
REMARK  142  A    between atoms: _351  and  _352
REMARK  143  A    between atoms: _355  and  _357
REMARK  144  A    between atoms: _357  and  _358
REMARK  145  A    between atoms: _357  and  _360
REMARK  146  A    between atoms: _360  and  _361
REMARK  147  A    between atoms: _364  and  _366
REMARK  148  A    between atoms: _366  and  _367
REMARK  149  A    between atoms: _366  and  _369
REMARK  150  A    between atoms: _369  and  _370
REMARK  151  A    between atoms: _373  and  _375
REMARK  152  A    between atoms: _375  and  _376
REMARK  153  A    between atoms: _375  and  _378
REMARK  154  A    between atoms: _378  and  _379
REMARK  155  A    between atoms: _382  and  _384
REMARK  156  A    between atoms: _384  and  _385
REMARK  157  A    between atoms: _384  and  _387
REMARK  158  A    between atoms: _390  and  _392
REMARK  159  A    between atoms: _392  and  _393
REMARK  160  A    between atoms: _392  and  _395
REMARK  161  A    between atoms: _395  and  _396
REMARK  162  A    between atoms: _396  and  _397
REMARK  163  A    between atoms: _397  and  _398
REMARK  164  A    between atoms: _398  and  _399
REMARK  165  A    between atoms: _403  and  _405
REMARK  166  A    between atoms: _405  and  _406
REMARK  167  A    between atoms: _405  and  _408
REMARK  168  A    between atoms: _408  and  _409
REMARK  169  A    between atoms: _409  and  _410
REMARK  170  A    between atoms: _412  and  _414
REMARK  171  A    between atoms: _414  and  _415
REMARK  172  A    between atoms: _414  and  _417
REMARK  173  A    between atoms: _417  and  _418
REMARK  174  A    between atoms: _421  and  _423
REMARK  175  A    between atoms: _423  and  _424
REMARK  176  A    between atoms: _426  and  _428
REMARK  177  A    between atoms: _428  and  _429
REMARK  178  A    between atoms: _431  and  _433
REMARK  179  A    between atoms: _433  and  _434
REMARK  180  A    between atoms: _433  and  _436
REMARK  181  A    between atoms: _436  and  _437
REMARK  182  A    between atoms: _440  and  _442
REMARK  183  A    between atoms: _442  and  _443
REMARK  184  A    between atoms: _445  and  _447
REMARK  185  A    between atoms: _447  and  _448
REMARK  186  A    between atoms: _450  and  _452
REMARK  187  A    between atoms: _452  and  _453
REMARK  188  A    between atoms: _452  and  _455
REMARK  189  A    between atoms: _455  and  _456
REMARK  190  A    between atoms: _462  and  _464
REMARK  191  A    between atoms: _464  and  _465
REMARK  192  A    between atoms: _464  and  _467
REMARK  193  A    between atoms: _467  and  _468
REMARK  194  A    between atoms: _471  and  _473
REMARK  195  A    between atoms: _473  and  _474
REMARK  196  A    between atoms: _473  and  _476
REMARK  197  A    between atoms: _476  and  _477
REMARK  198  A    between atoms: _480  and  _482
REMARK  199  A    between atoms: _482  and  _483
REMARK  200  A    between atoms: _482  and  _485
REMARK  201  A    between atoms: _485  and  _486
REMARK  202  A    between atoms: _490  and  _491
REMARK  203  A    between atoms: _496  and  _498
REMARK  204  A    between atoms: _498  and  _499
REMARK  205  A    between atoms: _498  and  _501
REMARK  206  A    between atoms: _504  and  _506
REMARK  207  A    between atoms: _506  and  _507
REMARK  208  A    between atoms: _506  and  _509
REMARK  209  A    between atoms: _509  and  _510
REMARK  210  A    between atoms: _515  and  _517
REMARK  211  A    between atoms: _517  and  _518
REMARK  212  A    between atoms: _517  and  _520
REMARK  213  A    between atoms: _520  and  _521
REMARK  214  A    between atoms: _524  and  _526
REMARK  215  A    between atoms: _526  and  _527
REMARK  216  A    between atoms: _529  and  _531
REMARK  217  A    between atoms: _531  and  _532
REMARK  218  A    between atoms: _531  and  _534
REMARK  219  A    between atoms: _534  and  _535
REMARK  220  A    between atoms: _535  and  _536
REMARK  221  A    between atoms: _536  and  _537
REMARK  222  A    between atoms: _546  and  _548
REMARK  223  A    between atoms: _548  and  _549
REMARK  224  A    between atoms: _548  and  _551
REMARK  225  A    between atoms: _551  and  _552
REMARK                            x       y       z     vdW  Elec       q    Type
REMARK                         _______ _______ _______ _____ _____    ______ ____
ROOT
ATOM      1  O   HOH     1      26.665  22.916  23.590  0.00  0.00    +0.000 OA
ENDROOT
TORSDOF 0
REMARK  Name = ../refined-set-2016/4dfg/4dfg_pocket.pdb
REMARK  225 active torsions:
REMARK  status: ('A' for Active; 'I' for Inactive)
REMARK    1  A    between atoms: _1  and  _3
REMARK    2  A    between atoms: _3  and  _4
REMARK    3  A    between atoms: _3  and  _6
REMARK    4  A    between atoms: _6  and  _7
REMARK    5  A    between atoms: _7  and  _8
REMARK    6  A    between atoms: _8  and  _9
REMARK    7  A    between atoms: _18  and  _20
REMARK    8  A    between atoms: _20  and  _21
REMARK    9  A    between atoms: _20  and  _23
REMARK   10  A    between atoms: _23  and  _24
REMARK   11  A    between atoms: _27  and  _29
REMARK   12  A    between atoms: _29  and  _30
REMARK   13  A    between atoms: _29  and  _32
REMARK   14  A    between atoms: _32  and  _33
REMARK   15  A    between atoms: _36  and  _38
REMARK   16  A    between atoms: _38  and  _39
REMARK   17  A    between atoms: _38  and  _41
REMARK   18  A    between atoms: _41  and  _42
REMARK   19  A    between atoms: _45  and  _47
REMARK   20  A    between atoms: _47  and  _48
REMARK   21  A    between atoms: _47  and  _50
REMARK   22  A    between atoms: _50  and  _51
REMARK   23  A    between atoms: _54  and  _56
REMARK   24  A    between atoms: _56  and  _57
REMARK   25  A    between atoms: _59  and  _61
REMARK   26  A    between atoms: _61  and  _62
REMARK   27  A    between atoms: _65  and  _67
REMARK   28  A    between atoms: _67  and  _68
REMARK   29  A    between atoms: _67  and  _70
REMARK   30  A    between atoms: _70  and  _71
REMARK   31  A    between atoms: _74  and  _76
REMARK   32  A    between atoms: _76  and  _77
REMARK   33  A    between atoms: _76  and  _79
REMARK   34  A    between atoms: _79  and  _80
REMARK   35  A    between atoms: _83  and  _85
REMARK   36  A    between atoms: _85  and  _86
REMARK   37  A    between atoms: _85  and  _88
REMARK   38  A    between atoms: _88  and  _89
REMARK   39  A    between atoms: _92  and  _94
REMARK   40  A    between atoms: _94  and  _95
REMARK   41  A    between atoms: _94  and  _97
REMARK   42  A    between atoms: _100  and  _102
REMARK   43  A    between atoms: _102  and  _103
REMARK   44  A    between atoms: _102  and  _105
REMARK   45  A    between atoms: _105  and  _106
REMARK   46  A    between atoms: _106  and  _107
REMARK   47  A    between atoms: _107  and  _108
REMARK   48  A    between atoms: _108  and  _109
REMARK   49  A    between atoms: _113  and  _115
REMARK   50  A    between atoms: _115  and  _116
REMARK   51  A    between atoms: _115  and  _118
REMARK   52  A    between atoms: _118  and  _119
REMARK   53  A    between atoms: _119  and  _120
REMARK   54  A    between atoms: _122  and  _124
REMARK   55  A    between atoms: _124  and  _125
REMARK   56  A    between atoms: _124  and  _127
REMARK   57  A    between atoms: _127  and  _128
REMARK   58  A    between atoms: _131  and  _133
REMARK   59  A    between atoms: _133  and  _134
REMARK   60  A    between atoms: _136  and  _138
REMARK   61  A    between atoms: _138  and  _139
REMARK   62  A    between atoms: _141  and  _143
REMARK   63  A    between atoms: _143  and  _144
REMARK   64  A    between atoms: _143  and  _146
REMARK   65  A    between atoms: _146  and  _147
REMARK   66  A    between atoms: _150  and  _152
REMARK   67  A    between atoms: _152  and  _153
REMARK   68  A    between atoms: _155  and  _157
REMARK   69  A    between atoms: _157  and  _158
REMARK   70  A    between atoms: _160  and  _162
REMARK   71  A    between atoms: _162  and  _163
REMARK   72  A    between atoms: _162  and  _165
REMARK   73  A    between atoms: _165  and  _166
REMARK   74  A    between atoms: _172  and  _174
REMARK   75  A    between atoms: _174  and  _175
REMARK   76  A    between atoms: _174  and  _177
REMARK   77  A    between atoms: _177  and  _178
REMARK   78  A    between atoms: _181  and  _183
REMARK   79  A    between atoms: _183  and  _184
REMARK   80  A    between atoms: _183  and  _186
REMARK   81  A    between atoms: _189  and  _191
REMARK   82  A    between atoms: _191  and  _192
REMARK   83  A    between atoms: _191  and  _194
REMARK   84  A    between atoms: _194  and  _195
REMARK   85  A    between atoms: _199  and  _200
REMARK   86  A    between atoms: _205  and  _207
REMARK   87  A    between atoms: _207  and  _208
REMARK   88  A    between atoms: _207  and  _210
REMARK   89  A    between atoms: _210  and  _211
REMARK   90  A    between atoms: _215  and  _216
REMARK   91  A    between atoms: _221  and  _223
REMARK   92  A    between atoms: _223  and  _224
REMARK   93  A    between atoms: _223  and  _226
REMARK   94  A    between atoms: _229  and  _231
REMARK   95  A    between atoms: _231  and  _232
REMARK   96  A    between atoms: _231  and  _234
REMARK   97  A    between atoms: _234  and  _235
REMARK   98  A    between atoms: _240  and  _242
REMARK   99  A    between atoms: _242  and  _243
REMARK  100  A    between atoms: _242  and  _245
REMARK  101  A    between atoms: _245  and  _246
REMARK  102  A    between atoms: _249  and  _251
REMARK  103  A    between atoms: _251  and  _252
REMARK  104  A    between atoms: _251  and  _254
REMARK  105  A    between atoms: _254  and  _255
REMARK  106  A    between atoms: _258  and  _260
REMARK  107  A    between atoms: _260  and  _261
REMARK  108  A    between atoms: _263  and  _265
REMARK  109  A    between atoms: _265  and  _266
REMARK  110  A    between atoms: _265  and  _268
REMARK  111  A    between atoms: _269  and  _270
REMARK  112  A    between atoms: _270  and  _271
REMARK  113  A    between atoms: _280  and  _282
REMARK  114  A    between atoms: _282  and  _283
REMARK  115  A    between atoms: _282  and  _285
REMARK  116  A    between atoms: _285  and  _286
REMARK  117  A    between atoms: _291  and  _293
REMARK  118  A    between atoms: _293  and  _294
REMARK  119  A    between atoms: _293  and  _296
REMARK  120  A    between atoms: _296  and  _297
REMARK  121  A    between atoms: _297  and  _298
REMARK  122  A    between atoms: _298  and  _299
REMARK  123  A    between atoms: _308  and  _310
REMARK  124  A    between atoms: _310  and  _311
REMARK  125  A    between atoms: _310  and  _313
REMARK  126  A    between atoms: _313  and  _314
REMARK  127  A    between atoms: _317  and  _319
REMARK  128  A    between atoms: _319  and  _320
REMARK  129  A    between atoms: _319  and  _322
REMARK  130  A    between atoms: _322  and  _323
REMARK  131  A    between atoms: _326  and  _328
REMARK  132  A    between atoms: _328  and  _329
REMARK  133  A    between atoms: _328  and  _331
REMARK  134  A    between atoms: _331  and  _332
REMARK  135  A    between atoms: _335  and  _337
REMARK  136  A    between atoms: _337  and  _338
REMARK  137  A    between atoms: _337  and  _340
REMARK  138  A    between atoms: _340  and  _341
REMARK  139  A    between atoms: _344  and  _346
REMARK  140  A    between atoms: _346  and  _347
REMARK  141  A    between atoms: _349  and  _351
REMARK  142  A    between atoms: _351  and  _352
REMARK  143  A    between atoms: _355  and  _357
REMARK  144  A    between atoms: _357  and  _358
REMARK  145  A    between atoms: _357  and  _360
REMARK  146  A    between atoms: _360  and  _361
REMARK  147  A    between atoms: _364  and  _366
REMARK  148  A    between atoms: _366  and  _367
REMARK  149  A    between atoms: _366  and  _369
REMARK  150  A    between atoms: _369  and  _370
REMARK  151  A    between atoms: _373  and  _375
REMARK  152  A    between atoms: _375  and  _376
REMARK  153  A    between atoms: _375  and  _378
REMARK  154  A    between atoms: _378  and  _379
REMARK  155  A    between atoms: _382  and  _384
REMARK  156  A    between atoms: _384  and  _385
REMARK  157  A    between atoms: _384  and  _387
REMARK  158  A    between atoms: _390  and  _392
REMARK  159  A    between atoms: _392  and  _393
REMARK  160  A    between atoms: _392  and  _395
REMARK  161  A    between atoms: _395  and  _396
REMARK  162  A    between atoms: _396  and  _397
REMARK  163  A    between atoms: _397  and  _398
REMARK  164  A    between atoms: _398  and  _399
REMARK  165  A    between atoms: _403  and  _405
REMARK  166  A    between atoms: _405  and  _406
REMARK  167  A    between atoms: _405  and  _408
REMARK  168  A    between atoms: _408  and  _409
REMARK  169  A    between atoms: _409  and  _410
REMARK  170  A    between atoms: _412  and  _414
REMARK  171  A    between atoms: _414  and  _415
REMARK  172  A    between atoms: _414  and  _417
REMARK  173  A    between atoms: _417  and  _418
REMARK  174  A    between atoms: _421  and  _423
REMARK  175  A    between atoms: _423  and  _424
REMARK  176  A    between atoms: _426  and  _428
REMARK  177  A    between atoms: _428  and  _429
REMARK  178  A    between atoms: _431  and  _433
REMARK  179  A    between atoms: _433  and  _434
REMARK  180  A    between atoms: _433  and  _436
REMARK  181  A    between atoms: _436  and  _437
REMARK  182  A    between atoms: _440  and  _442
REMARK  183  A    between atoms: _442  and  _443
REMARK  184  A    between atoms: _445  and  _447
REMARK  185  A    between atoms: _447  and  _448
REMARK  186  A    between atoms: _450  and  _452
REMARK  187  A    between atoms: _452  and  _453
REMARK  188  A    between atoms: _452  and  _455
REMARK  189  A    between atoms: _455  and  _456
REMARK  190  A    between atoms: _462  and  _464
REMARK  191  A    between atoms: _464  and  _465
REMARK  192  A    between atoms: _464  and  _467
REMARK  193  A    between atoms: _467  and  _468
REMARK  194  A    between atoms: _471  and  _473
REMARK  195  A    between atoms: _473  and  _474
REMARK  196  A    between atoms: _473  and  _476
REMARK  197  A    between atoms: _476  and  _477
REMARK  198  A    between atoms: _480  and  _482
REMARK  199  A    between atoms: _482  and  _483
REMARK  200  A    between atoms: _482  and  _485
REMARK  201  A    between atoms: _485  and  _486
REMARK  202  A    between atoms: _490  and  _491
REMARK  203  A    between atoms: _496  and  _498
REMARK  204  A    between atoms: _498  and  _499
REMARK  205  A    between atoms: _498  and  _501
REMARK  206  A    between atoms: _504  and  _506
REMARK  207  A    between atoms: _506  and  _507
REMARK  208  A    between atoms: _506  and  _509
REMARK  209  A    between atoms: _509  and  _510
REMARK  210  A    between atoms: _515  and  _517
REMARK  211  A    between atoms: _517  and  _518
REMARK  212  A    between atoms: _517  and  _520
REMARK  213  A    between atoms: _520  and  _521
REMARK  214  A    between atoms: _524  and  _526
REMARK  215  A    between atoms: _526  and  _527
REMARK  216  A    between atoms: _529  and  _531
REMARK  217  A    between atoms: _531  and  _532
REMARK  218  A    between atoms: _531  and  _534
REMARK  219  A    between atoms: _534  and  _535
REMARK  220  A    between atoms: _535  and  _536
REMARK  221  A    between atoms: _536  and  _537
REMARK  222  A    between atoms: _546  and  _548
REMARK  223  A    between atoms: _548  and  _549
REMARK  224  A    between atoms: _548  and  _551
REMARK  225  A    between atoms: _551  and  _552
REMARK                            x       y       z     vdW  Elec       q    Type
REMARK                         _______ _______ _______ _____ _____    ______ ____
ROOT
ATOM      1  O   HOH     1      16.910  14.604   9.429  0.00  0.00    +0.000 OA
ENDROOT
TORSDOF 0
