REMARK  Name = ../refined-set-2016/3qfy/3qfy_pocket.pdb
REMARK  180 active torsions:
REMARK  status: ('A' for Active; 'I' for Inactive)
REMARK    1  A    between atoms: _1  and  _3
REMARK    2  A    between atoms: _3  and  _4
REMARK    3  A    between atoms: _3  and  _6
REMARK    4  A    between atoms: _6  and  _7
REMARK    5  A    between atoms: _7  and  _8
REMARK    6  A    between atoms: _8  and  _9
REMARK    7  A    between atoms: _18  and  _20
REMARK    8  A    between atoms: _20  and  _21
REMARK    9  A    between atoms: _20  and  _23
REMARK   10  A    between atoms: _23  and  _24
REMARK   11  A    between atoms: _24  and  _25
REMARK   12  A    between atoms: _28  and  _30
REMARK   13  A    between atoms: _30  and  _31
REMARK   14  A    between atoms: _30  and  _33
REMARK   15  A    between atoms: _33  and  _34
REMARK   16  A    between atoms: _34  and  _35
REMARK   17  A    between atoms: _35  and  _36
REMARK   18  A    between atoms: _45  and  _47
REMARK   19  A    between atoms: _47  and  _48
REMARK   20  A    between atoms: _50  and  _52
REMARK   21  A    between atoms: _52  and  _53
REMARK   22  A    between atoms: _52  and  _55
REMARK   23  A    between atoms: _55  and  _56
REMARK   24  A    between atoms: _62  and  _64
REMARK   25  A    between atoms: _64  and  _65
REMARK   26  A    between atoms: _64  and  _67
REMARK   27  A    between atoms: _67  and  _68
REMARK   28  A    between atoms: _68  and  _69
REMARK   29  A    between atoms: _69  and  _70
REMARK   30  A    between atoms: _79  and  _81
REMARK   31  A    between atoms: _81  and  _82
REMARK   32  A    between atoms: _81  and  _84
REMARK   33  A    between atoms: _84  and  _85
REMARK   34  A    between atoms: _88  and  _90
REMARK   35  A    between atoms: _90  and  _91
REMARK   36  A    between atoms: _90  and  _93
REMARK   37  A    between atoms: _93  and  _94
REMARK   38  A    between atoms: _96  and  _98
REMARK   39  A    between atoms: _98  and  _99
REMARK   40  A    between atoms: _98  and  _101
REMARK   41  A    between atoms: _101  and  _102
REMARK   42  A    between atoms: _102  and  _103
REMARK   43  A    between atoms: _108  and  _110
REMARK   44  A    between atoms: _110  and  _111
REMARK   45  A    between atoms: _110  and  _113
REMARK   46  A    between atoms: _113  and  _114
REMARK   47  A    between atoms: _119  and  _121
REMARK   48  A    between atoms: _121  and  _122
REMARK   49  A    between atoms: _121  and  _124
REMARK   50  A    between atoms: _124  and  _125
REMARK   51  A    between atoms: _128  and  _130
REMARK   52  A    between atoms: _130  and  _131
REMARK   53  A    between atoms: _130  and  _133
REMARK   54  A    between atoms: _133  and  _134
REMARK   55  A    between atoms: _140  and  _142
REMARK   56  A    between atoms: _142  and  _143
REMARK   57  A    between atoms: _142  and  _145
REMARK   58  A    between atoms: _145  and  _146
REMARK   59  A    between atoms: _149  and  _151
REMARK   60  A    between atoms: _151  and  _152
REMARK   61  A    between atoms: _151  and  _154
REMARK   62  A    between atoms: _154  and  _155
REMARK   63  A    between atoms: _158  and  _160
REMARK   64  A    between atoms: _160  and  _161
REMARK   65  A    between atoms: _160  and  _163
REMARK   66  A    between atoms: _163  and  _164
REMARK   67  A    between atoms: _174  and  _176
REMARK   68  A    between atoms: _176  and  _177
REMARK   69  A    between atoms: _180  and  _182
REMARK   70  A    between atoms: _182  and  _183
REMARK   71  A    between atoms: _182  and  _185
REMARK   72  A    between atoms: _185  and  _186
REMARK   73  A    between atoms: _189  and  _191
REMARK   74  A    between atoms: _191  and  _192
REMARK   75  A    between atoms: _191  and  _194
REMARK   76  A    between atoms: _194  and  _195
REMARK   77  A    between atoms: _205  and  _207
REMARK   78  A    between atoms: _207  and  _208
REMARK   79  A    between atoms: _207  and  _210
REMARK   80  A    between atoms: _210  and  _211
REMARK   81  A    between atoms: _216  and  _218
REMARK   82  A    between atoms: _218  and  _219
REMARK   83  A    between atoms: _218  and  _221
REMARK   84  A    between atoms: _221  and  _222
REMARK   85  A    between atoms: _225  and  _227
REMARK   86  A    between atoms: _227  and  _228
REMARK   87  A    between atoms: _227  and  _230
REMARK   88  A    between atoms: _232  and  _234
REMARK   89  A    between atoms: _234  and  _235
REMARK   90  A    between atoms: _234  and  _237
REMARK   91  A    between atoms: _237  and  _238
REMARK   92  A    between atoms: _241  and  _243
REMARK   93  A    between atoms: _243  and  _244
REMARK   94  A    between atoms: _243  and  _246
REMARK   95  A    between atoms: _246  and  _247
REMARK   96  A    between atoms: _252  and  _254
REMARK   97  A    between atoms: _254  and  _255
REMARK   98  A    between atoms: _254  and  _257
REMARK   99  A    between atoms: _257  and  _258
REMARK  100  A    between atoms: _258  and  _259
REMARK  101  A    between atoms: _264  and  _266
REMARK  102  A    between atoms: _266  and  _267
REMARK  103  A    between atoms: _266  and  _269
REMARK  104  A    between atoms: _269  and  _270
REMARK  105  A    between atoms: _276  and  _278
REMARK  106  A    between atoms: _278  and  _279
REMARK  107  A    between atoms: _278  and  _281
REMARK  108  A    between atoms: _281  and  _282
REMARK  109  A    between atoms: _282  and  _283
REMARK  110  A    between atoms: _283  and  _284
REMARK  111  A    between atoms: _293  and  _295
REMARK  112  A    between atoms: _295  and  _296
REMARK  113  A    between atoms: _295  and  _298
REMARK  114  A    between atoms: _298  and  _299
REMARK  115  A    between atoms: _299  and  _300
REMARK  116  A    between atoms: _303  and  _305
REMARK  117  A    between atoms: _305  and  _306
REMARK  118  A    between atoms: _305  and  _308
REMARK  119  A    between atoms: _308  and  _309
REMARK  120  A    between atoms: _312  and  _314
REMARK  121  A    between atoms: _314  and  _315
REMARK  122  A    between atoms: _314  and  _317
REMARK  123  A    between atoms: _317  and  _318
REMARK  124  A    between atoms: _323  and  _324
REMARK  125  A    between atoms: _326  and  _328
REMARK  126  A    between atoms: _328  and  _329
REMARK  127  A    between atoms: _328  and  _331
REMARK  128  A    between atoms: _331  and  _332
REMARK  129  A    between atoms: _332  and  _333
REMARK  130  A    between atoms: _333  and  _334
REMARK  131  A    between atoms: _334  and  _335
REMARK  132  A    between atoms: _339  and  _341
REMARK  133  A    between atoms: _341  and  _342
REMARK  134  A    between atoms: _341  and  _344
REMARK  135  A    between atoms: _344  and  _345
REMARK  136  A    between atoms: _345  and  _346
REMARK  137  A    between atoms: _349  and  _351
REMARK  138  A    between atoms: _351  and  _352
REMARK  139  A    between atoms: _351  and  _354
REMARK  140  A    between atoms: _354  and  _355
REMARK  141  A    between atoms: _361  and  _363
REMARK  142  A    between atoms: _363  and  _364
REMARK  143  A    between atoms: _363  and  _366
REMARK  144  A    between atoms: _366  and  _367
REMARK  145  A    between atoms: _372  and  _374
REMARK  146  A    between atoms: _374  and  _375
REMARK  147  A    between atoms: _374  and  _377
REMARK  148  A    between atoms: _377  and  _378
REMARK  149  A    between atoms: _383  and  _385
REMARK  150  A    between atoms: _385  and  _386
REMARK  151  A    between atoms: _385  and  _388
REMARK  152  A    between atoms: _388  and  _389
REMARK  153  A    between atoms: _399  and  _401
REMARK  154  A    between atoms: _401  and  _402
REMARK  155  A    between atoms: _401  and  _404
REMARK  156  A    between atoms: _404  and  _405
REMARK  157  A    between atoms: _405  and  _406
REMARK  158  A    between atoms: _411  and  _413
REMARK  159  A    between atoms: _413  and  _414
REMARK  160  A    between atoms: _413  and  _416
REMARK  161  A    between atoms: _416  and  _417
REMARK  162  A    between atoms: _422  and  _424
REMARK  163  A    between atoms: _424  and  _425
REMARK  164  A    between atoms: _424  and  _427
REMARK  165  A    between atoms: _427  and  _428
REMARK  166  A    between atoms: _431  and  _433
REMARK  167  A    between atoms: _433  and  _434
REMARK  168  A    between atoms: _433  and  _436
REMARK  169  A    between atoms: _436  and  _437
REMARK  170  A    between atoms: _440  and  _442
REMARK  171  A    between atoms: _442  and  _443
REMARK  172  A    between atoms: _445  and  _447
REMARK  173  A    between atoms: _447  and  _448
REMARK  174  A    between atoms: _447  and  _450
REMARK  175  A    between atoms: _450  and  _451
REMARK  176  A    between atoms: _461  and  _463
REMARK  177  A    between atoms: _463  and  _464
REMARK  178  A    between atoms: _463  and  _466
REMARK  179  A    between atoms: _466  and  _467
REMARK  180  A    between atoms: _467  and  _468
REMARK                            x       y       z     vdW  Elec       q    Type
REMARK                         _______ _______ _______ _____ _____    ______ ____
ROOT
ATOM      1  NE  ARG A   1      15.443  47.024  80.937  0.00  0.00    -0.265 N 
ATOM      2  HE  ARG A   1      15.129  46.103  81.304  0.00  0.00    +0.259 HD
ATOM      3  CZ  ARG A   1      16.687  47.410  81.216  0.00  0.00    +0.342 C 
ATOM      4  NH2 ARG A   1      17.458  46.659  82.044  0.00  0.00    -0.292 N 
ATOM      5 HH21 ARG A   1      17.077  45.785  82.459  0.00  0.00    +0.255 HD
ATOM      6 HH22 ARG A   1      18.430  46.958  82.263  0.00  0.00    +0.255 HD
ATOM      7  NH1 ARG A   1      17.158  48.534  80.651  0.00  0.00    -0.292 N 
ATOM      8 HH11 ARG A   1      18.127  48.853  80.856  0.00  0.00    +0.255 HD
ATOM      9 HH12 ARG A   1      16.554  49.086  80.009  0.00  0.00    +0.255 HD
ENDROOT
BRANCH   1  10
ATOM     10  CD  ARG A   1      14.479  47.811  80.143  0.00  0.00    +0.174 C 
BRANCH  10  11
ATOM     11  CG  ARG A   1      13.544  48.687  81.137  0.00  0.00    +0.045 C 
BRANCH  11  12
ATOM     12  CB  ARG A   1      12.615  49.731  80.451  0.00  0.00    +0.029 C 
BRANCH  12  13
ATOM     13  CA  ARG A   1      13.315  50.825  79.625  0.00  0.00    +0.133 C 
BRANCH  13  14
ATOM     14  N   ARG A   1      14.350  51.479  80.413  0.00  0.00    -0.239 NA
ATOM     15  H   ARG A   1      14.097  52.025  81.261  0.00  0.00    +0.142 HD
ENDBRANCH  13  14
BRANCH  13  16
ATOM     16  C   ARG A   1      12.267  51.828  79.136  0.00  0.00    +0.224 C 
ATOM     17  O   ARG A   1      11.078  51.442  78.955  0.00  0.00    -0.287 OA
ENDBRANCH  13  16
ENDBRANCH  12  13
ENDBRANCH  11  12
ENDBRANCH  10  11
ENDBRANCH   1  10
TORSDOF 6
REMARK  Name = ../refined-set-2016/3qfy/3qfy_pocket.pdb
REMARK  180 active torsions:
REMARK  status: ('A' for Active; 'I' for Inactive)
REMARK    1  A    between atoms: _1  and  _3
REMARK    2  A    between atoms: _3  and  _4
REMARK    3  A    between atoms: _3  and  _6
REMARK    4  A    between atoms: _6  and  _7
REMARK    5  A    between atoms: _7  and  _8
REMARK    6  A    between atoms: _8  and  _9
REMARK    7  A    between atoms: _18  and  _20
REMARK    8  A    between atoms: _20  and  _21
REMARK    9  A    between atoms: _20  and  _23
REMARK   10  A    between atoms: _23  and  _24
REMARK   11  A    between atoms: _24  and  _25
REMARK   12  A    between atoms: _28  and  _30
REMARK   13  A    between atoms: _30  and  _31
REMARK   14  A    between atoms: _30  and  _33
REMARK   15  A    between atoms: _33  and  _34
REMARK   16  A    between atoms: _34  and  _35
REMARK   17  A    between atoms: _35  and  _36
REMARK   18  A    between atoms: _45  and  _47
REMARK   19  A    between atoms: _47  and  _48
REMARK   20  A    between atoms: _50  and  _52
REMARK   21  A    between atoms: _52  and  _53
REMARK   22  A    between atoms: _52  and  _55
REMARK   23  A    between atoms: _55  and  _56
REMARK   24  A    between atoms: _62  and  _64
REMARK   25  A    between atoms: _64  and  _65
REMARK   26  A    between atoms: _64  and  _67
REMARK   27  A    between atoms: _67  and  _68
REMARK   28  A    between atoms: _68  and  _69
REMARK   29  A    between atoms: _69  and  _70
REMARK   30  A    between atoms: _79  and  _81
REMARK   31  A    between atoms: _81  and  _82
REMARK   32  A    between atoms: _81  and  _84
REMARK   33  A    between atoms: _84  and  _85
REMARK   34  A    between atoms: _88  and  _90
REMARK   35  A    between atoms: _90  and  _91
REMARK   36  A    between atoms: _90  and  _93
REMARK   37  A    between atoms: _93  and  _94
REMARK   38  A    between atoms: _96  and  _98
REMARK   39  A    between atoms: _98  and  _99
REMARK   40  A    between atoms: _98  and  _101
REMARK   41  A    between atoms: _101  and  _102
REMARK   42  A    between atoms: _102  and  _103
REMARK   43  A    between atoms: _108  and  _110
REMARK   44  A    between atoms: _110  and  _111
REMARK   45  A    between atoms: _110  and  _113
REMARK   46  A    between atoms: _113  and  _114
REMARK   47  A    between atoms: _119  and  _121
REMARK   48  A    between atoms: _121  and  _122
REMARK   49  A    between atoms: _121  and  _124
REMARK   50  A    between atoms: _124  and  _125
REMARK   51  A    between atoms: _128  and  _130
REMARK   52  A    between atoms: _130  and  _131
REMARK   53  A    between atoms: _130  and  _133
REMARK   54  A    between atoms: _133  and  _134
REMARK   55  A    between atoms: _140  and  _142
REMARK   56  A    between atoms: _142  and  _143
REMARK   57  A    between atoms: _142  and  _145
REMARK   58  A    between atoms: _145  and  _146
REMARK   59  A    between atoms: _149  and  _151
REMARK   60  A    between atoms: _151  and  _152
REMARK   61  A    between atoms: _151  and  _154
REMARK   62  A    between atoms: _154  and  _155
REMARK   63  A    between atoms: _158  and  _160
REMARK   64  A    between atoms: _160  and  _161
REMARK   65  A    between atoms: _160  and  _163
REMARK   66  A    between atoms: _163  and  _164
REMARK   67  A    between atoms: _174  and  _176
REMARK   68  A    between atoms: _176  and  _177
REMARK   69  A    between atoms: _180  and  _182
REMARK   70  A    between atoms: _182  and  _183
REMARK   71  A    between atoms: _182  and  _185
REMARK   72  A    between atoms: _185  and  _186
REMARK   73  A    between atoms: _189  and  _191
REMARK   74  A    between atoms: _191  and  _192
REMARK   75  A    between atoms: _191  and  _194
REMARK   76  A    between atoms: _194  and  _195
REMARK   77  A    between atoms: _205  and  _207
REMARK   78  A    between atoms: _207  and  _208
REMARK   79  A    between atoms: _207  and  _210
REMARK   80  A    between atoms: _210  and  _211
REMARK   81  A    between atoms: _216  and  _218
REMARK   82  A    between atoms: _218  and  _219
REMARK   83  A    between atoms: _218  and  _221
REMARK   84  A    between atoms: _221  and  _222
REMARK   85  A    between atoms: _225  and  _227
REMARK   86  A    between atoms: _227  and  _228
REMARK   87  A    between atoms: _227  and  _230
REMARK   88  A    between atoms: _232  and  _234
REMARK   89  A    between atoms: _234  and  _235
REMARK   90  A    between atoms: _234  and  _237
REMARK   91  A    between atoms: _237  and  _238
REMARK   92  A    between atoms: _241  and  _243
REMARK   93  A    between atoms: _243  and  _244
REMARK   94  A    between atoms: _243  and  _246
REMARK   95  A    between atoms: _246  and  _247
REMARK   96  A    between atoms: _252  and  _254
REMARK   97  A    between atoms: _254  and  _255
REMARK   98  A    between atoms: _254  and  _257
REMARK   99  A    between atoms: _257  and  _258
REMARK  100  A    between atoms: _258  and  _259
REMARK  101  A    between atoms: _264  and  _266
REMARK  102  A    between atoms: _266  and  _267
REMARK  103  A    between atoms: _266  and  _269
REMARK  104  A    between atoms: _269  and  _270
REMARK  105  A    between atoms: _276  and  _278
REMARK  106  A    between atoms: _278  and  _279
REMARK  107  A    between atoms: _278  and  _281
REMARK  108  A    between atoms: _281  and  _282
REMARK  109  A    between atoms: _282  and  _283
REMARK  110  A    between atoms: _283  and  _284
REMARK  111  A    between atoms: _293  and  _295
REMARK  112  A    between atoms: _295  and  _296
REMARK  113  A    between atoms: _295  and  _298
REMARK  114  A    between atoms: _298  and  _299
REMARK  115  A    between atoms: _299  and  _300
REMARK  116  A    between atoms: _303  and  _305
REMARK  117  A    between atoms: _305  and  _306
REMARK  118  A    between atoms: _305  and  _308
REMARK  119  A    between atoms: _308  and  _309
REMARK  120  A    between atoms: _312  and  _314
REMARK  121  A    between atoms: _314  and  _315
REMARK  122  A    between atoms: _314  and  _317
REMARK  123  A    between atoms: _317  and  _318
REMARK  124  A    between atoms: _323  and  _324
REMARK  125  A    between atoms: _326  and  _328
REMARK  126  A    between atoms: _328  and  _329
REMARK  127  A    between atoms: _328  and  _331
REMARK  128  A    between atoms: _331  and  _332
REMARK  129  A    between atoms: _332  and  _333
REMARK  130  A    between atoms: _333  and  _334
REMARK  131  A    between atoms: _334  and  _335
REMARK  132  A    between atoms: _339  and  _341
REMARK  133  A    between atoms: _341  and  _342
REMARK  134  A    between atoms: _341  and  _344
REMARK  135  A    between atoms: _344  and  _345
REMARK  136  A    between atoms: _345  and  _346
REMARK  137  A    between atoms: _349  and  _351
REMARK  138  A    between atoms: _351  and  _352
REMARK  139  A    between atoms: _351  and  _354
REMARK  140  A    between atoms: _354  and  _355
REMARK  141  A    between atoms: _361  and  _363
REMARK  142  A    between atoms: _363  and  _364
REMARK  143  A    between atoms: _363  and  _366
REMARK  144  A    between atoms: _366  and  _367
REMARK  145  A    between atoms: _372  and  _374
REMARK  146  A    between atoms: _374  and  _375
REMARK  147  A    between atoms: _374  and  _377
REMARK  148  A    between atoms: _377  and  _378
REMARK  149  A    between atoms: _383  and  _385
REMARK  150  A    between atoms: _385  and  _386
REMARK  151  A    between atoms: _385  and  _388
REMARK  152  A    between atoms: _388  and  _389
REMARK  153  A    between atoms: _399  and  _401
REMARK  154  A    between atoms: _401  and  _402
REMARK  155  A    between atoms: _401  and  _404
REMARK  156  A    between atoms: _404  and  _405
REMARK  157  A    between atoms: _405  and  _406
REMARK  158  A    between atoms: _411  and  _413
REMARK  159  A    between atoms: _413  and  _414
REMARK  160  A    between atoms: _413  and  _416
REMARK  161  A    between atoms: _416  and  _417
REMARK  162  A    between atoms: _422  and  _424
REMARK  163  A    between atoms: _424  and  _425
REMARK  164  A    between atoms: _424  and  _427
REMARK  165  A    between atoms: _427  and  _428
REMARK  166  A    between atoms: _431  and  _433
REMARK  167  A    between atoms: _433  and  _434
REMARK  168  A    between atoms: _433  and  _436
REMARK  169  A    between atoms: _436  and  _437
REMARK  170  A    between atoms: _440  and  _442
REMARK  171  A    between atoms: _442  and  _443
REMARK  172  A    between atoms: _445  and  _447
REMARK  173  A    between atoms: _447  and  _448
REMARK  174  A    between atoms: _447  and  _450
REMARK  175  A    between atoms: _450  and  _451
REMARK  176  A    between atoms: _461  and  _463
REMARK  177  A    between atoms: _463  and  _464
REMARK  178  A    between atoms: _463  and  _466
REMARK  179  A    between atoms: _466  and  _467
REMARK  180  A    between atoms: _467  and  _468
REMARK                            x       y       z     vdW  Elec       q    Type
REMARK                         _______ _______ _______ _____ _____    ______ ____
ROOT
ATOM      1  CA  GLU A   1       8.206  51.168  75.054  0.00  0.00    +0.134 C 
ENDROOT
BRANCH   1   2
ATOM      2  N   GLU A   1       8.446  50.249  73.917  0.00  0.00    -0.239 NA
ATOM      3  H   GLU A   1       9.414  49.960  73.670  0.00  0.00    +0.142 HD
ENDBRANCH   1   2
BRANCH   1   4
ATOM      4  C   GLU A   1       7.916  52.570  74.507  0.00  0.00    +0.224 C 
ATOM      5  O   GLU A   1       8.686  53.059  73.692  0.00  0.00    -0.287 OA
ENDBRANCH   1   4
BRANCH   1   6
ATOM      6  CB  GLU A   1       9.371  51.193  76.061  0.00  0.00    +0.037 C 
BRANCH   6   7
ATOM      7  CG  GLU A   1       9.969  49.789  76.404  0.00  0.00    +0.116 C 
BRANCH   7   8
ATOM      8  CD  GLU A   1       9.161  48.987  77.465  0.00  0.00    +0.365 C 
ATOM      9  OE2 GLU A   1       8.176  49.543  78.023  0.00  0.00    -0.246 OA
ATOM     10  OE1 GLU A   1       9.554  47.819  77.778  0.00  0.00    -0.246 OA
ENDBRANCH   7   8
ENDBRANCH   6   7
ENDBRANCH   1   6
TORSDOF 5
REMARK  Name = ../refined-set-2016/3qfy/3qfy_pocket.pdb
REMARK  180 active torsions:
REMARK  status: ('A' for Active; 'I' for Inactive)
REMARK    1  A    between atoms: _1  and  _3
REMARK    2  A    between atoms: _3  and  _4
REMARK    3  A    between atoms: _3  and  _6
REMARK    4  A    between atoms: _6  and  _7
REMARK    5  A    between atoms: _7  and  _8
REMARK    6  A    between atoms: _8  and  _9
REMARK    7  A    between atoms: _18  and  _20
REMARK    8  A    between atoms: _20  and  _21
REMARK    9  A    between atoms: _20  and  _23
REMARK   10  A    between atoms: _23  and  _24
REMARK   11  A    between atoms: _24  and  _25
REMARK   12  A    between atoms: _28  and  _30
REMARK   13  A    between atoms: _30  and  _31
REMARK   14  A    between atoms: _30  and  _33
REMARK   15  A    between atoms: _33  and  _34
REMARK   16  A    between atoms: _34  and  _35
REMARK   17  A    between atoms: _35  and  _36
REMARK   18  A    between atoms: _45  and  _47
REMARK   19  A    between atoms: _47  and  _48
REMARK   20  A    between atoms: _50  and  _52
REMARK   21  A    between atoms: _52  and  _53
REMARK   22  A    between atoms: _52  and  _55
REMARK   23  A    between atoms: _55  and  _56
REMARK   24  A    between atoms: _62  and  _64
REMARK   25  A    between atoms: _64  and  _65
REMARK   26  A    between atoms: _64  and  _67
REMARK   27  A    between atoms: _67  and  _68
REMARK   28  A    between atoms: _68  and  _69
REMARK   29  A    between atoms: _69  and  _70
REMARK   30  A    between atoms: _79  and  _81
REMARK   31  A    between atoms: _81  and  _82
REMARK   32  A    between atoms: _81  and  _84
REMARK   33  A    between atoms: _84  and  _85
REMARK   34  A    between atoms: _88  and  _90
REMARK   35  A    between atoms: _90  and  _91
REMARK   36  A    between atoms: _90  and  _93
REMARK   37  A    between atoms: _93  and  _94
REMARK   38  A    between atoms: _96  and  _98
REMARK   39  A    between atoms: _98  and  _99
REMARK   40  A    between atoms: _98  and  _101
REMARK   41  A    between atoms: _101  and  _102
REMARK   42  A    between atoms: _102  and  _103
REMARK   43  A    between atoms: _108  and  _110
REMARK   44  A    between atoms: _110  and  _111
REMARK   45  A    between atoms: _110  and  _113
REMARK   46  A    between atoms: _113  and  _114
REMARK   47  A    between atoms: _119  and  _121
REMARK   48  A    between atoms: _121  and  _122
REMARK   49  A    between atoms: _121  and  _124
REMARK   50  A    between atoms: _124  and  _125
REMARK   51  A    between atoms: _128  and  _130
REMARK   52  A    between atoms: _130  and  _131
REMARK   53  A    between atoms: _130  and  _133
REMARK   54  A    between atoms: _133  and  _134
REMARK   55  A    between atoms: _140  and  _142
REMARK   56  A    between atoms: _142  and  _143
REMARK   57  A    between atoms: _142  and  _145
REMARK   58  A    between atoms: _145  and  _146
REMARK   59  A    between atoms: _149  and  _151
REMARK   60  A    between atoms: _151  and  _152
REMARK   61  A    between atoms: _151  and  _154
REMARK   62  A    between atoms: _154  and  _155
REMARK   63  A    between atoms: _158  and  _160
REMARK   64  A    between atoms: _160  and  _161
REMARK   65  A    between atoms: _160  and  _163
REMARK   66  A    between atoms: _163  and  _164
REMARK   67  A    between atoms: _174  and  _176
REMARK   68  A    between atoms: _176  and  _177
REMARK   69  A    between atoms: _180  and  _182
REMARK   70  A    between atoms: _182  and  _183
REMARK   71  A    between atoms: _182  and  _185
REMARK   72  A    between atoms: _185  and  _186
REMARK   73  A    between atoms: _189  and  _191
REMARK   74  A    between atoms: _191  and  _192
REMARK   75  A    between atoms: _191  and  _194
REMARK   76  A    between atoms: _194  and  _195
REMARK   77  A    between atoms: _205  and  _207
REMARK   78  A    between atoms: _207  and  _208
REMARK   79  A    between atoms: _207  and  _210
REMARK   80  A    between atoms: _210  and  _211
REMARK   81  A    between atoms: _216  and  _218
REMARK   82  A    between atoms: _218  and  _219
REMARK   83  A    between atoms: _218  and  _221
REMARK   84  A    between atoms: _221  and  _222
REMARK   85  A    between atoms: _225  and  _227
REMARK   86  A    between atoms: _227  and  _228
REMARK   87  A    between atoms: _227  and  _230
REMARK   88  A    between atoms: _232  and  _234
REMARK   89  A    between atoms: _234  and  _235
REMARK   90  A    between atoms: _234  and  _237
REMARK   91  A    between atoms: _237  and  _238
REMARK   92  A    between atoms: _241  and  _243
REMARK   93  A    between atoms: _243  and  _244
REMARK   94  A    between atoms: _243  and  _246
REMARK   95  A    between atoms: _246  and  _247
REMARK   96  A    between atoms: _252  and  _254
REMARK   97  A    between atoms: _254  and  _255
REMARK   98  A    between atoms: _254  and  _257
REMARK   99  A    between atoms: _257  and  _258
REMARK  100  A    between atoms: _258  and  _259
REMARK  101  A    between atoms: _264  and  _266
REMARK  102  A    between atoms: _266  and  _267
REMARK  103  A    between atoms: _266  and  _269
REMARK  104  A    between atoms: _269  and  _270
REMARK  105  A    between atoms: _276  and  _278
REMARK  106  A    between atoms: _278  and  _279
REMARK  107  A    between atoms: _278  and  _281
REMARK  108  A    between atoms: _281  and  _282
REMARK  109  A    between atoms: _282  and  _283
REMARK  110  A    between atoms: _283  and  _284
REMARK  111  A    between atoms: _293  and  _295
REMARK  112  A    between atoms: _295  and  _296
REMARK  113  A    between atoms: _295  and  _298
REMARK  114  A    between atoms: _298  and  _299
REMARK  115  A    between atoms: _299  and  _300
REMARK  116  A    between atoms: _303  and  _305
REMARK  117  A    between atoms: _305  and  _306
REMARK  118  A    between atoms: _305  and  _308
REMARK  119  A    between atoms: _308  and  _309
REMARK  120  A    between atoms: _312  and  _314
REMARK  121  A    between atoms: _314  and  _315
REMARK  122  A    between atoms: _314  and  _317
REMARK  123  A    between atoms: _317  and  _318
REMARK  124  A    between atoms: _323  and  _324
REMARK  125  A    between atoms: _326  and  _328
REMARK  126  A    between atoms: _328  and  _329
REMARK  127  A    between atoms: _328  and  _331
REMARK  128  A    between atoms: _331  and  _332
REMARK  129  A    between atoms: _332  and  _333
REMARK  130  A    between atoms: _333  and  _334
REMARK  131  A    between atoms: _334  and  _335
REMARK  132  A    between atoms: _339  and  _341
REMARK  133  A    between atoms: _341  and  _342
REMARK  134  A    between atoms: _341  and  _344
REMARK  135  A    between atoms: _344  and  _345
REMARK  136  A    between atoms: _345  and  _346
REMARK  137  A    between atoms: _349  and  _351
REMARK  138  A    between atoms: _351  and  _352
REMARK  139  A    between atoms: _351  and  _354
REMARK  140  A    between atoms: _354  and  _355
REMARK  141  A    between atoms: _361  and  _363
REMARK  142  A    between atoms: _363  and  _364
REMARK  143  A    between atoms: _363  and  _366
REMARK  144  A    between atoms: _366  and  _367
REMARK  145  A    between atoms: _372  and  _374
REMARK  146  A    between atoms: _374  and  _375
REMARK  147  A    between atoms: _374  and  _377
REMARK  148  A    between atoms: _377  and  _378
REMARK  149  A    between atoms: _383  and  _385
REMARK  150  A    between atoms: _385  and  _386
REMARK  151  A    between atoms: _385  and  _388
REMARK  152  A    between atoms: _388  and  _389
REMARK  153  A    between atoms: _399  and  _401
REMARK  154  A    between atoms: _401  and  _402
REMARK  155  A    between atoms: _401  and  _404
REMARK  156  A    between atoms: _404  and  _405
REMARK  157  A    between atoms: _405  and  _406
REMARK  158  A    between atoms: _411  and  _413
REMARK  159  A    between atoms: _413  and  _414
REMARK  160  A    between atoms: _413  and  _416
REMARK  161  A    between atoms: _416  and  _417
REMARK  162  A    between atoms: _422  and  _424
REMARK  163  A    between atoms: _424  and  _425
REMARK  164  A    between atoms: _424  and  _427
REMARK  165  A    between atoms: _427  and  _428
REMARK  166  A    between atoms: _431  and  _433
REMARK  167  A    between atoms: _433  and  _434
REMARK  168  A    between atoms: _433  and  _436
REMARK  169  A    between atoms: _436  and  _437
REMARK  170  A    between atoms: _440  and  _442
REMARK  171  A    between atoms: _442  and  _443
REMARK  172  A    between atoms: _445  and  _447
REMARK  173  A    between atoms: _447  and  _448
REMARK  174  A    between atoms: _447  and  _450
REMARK  175  A    between atoms: _450  and  _451
REMARK  176  A    between atoms: _461  and  _463
REMARK  177  A    between atoms: _463  and  _464
REMARK  178  A    between atoms: _463  and  _466
REMARK  179  A    between atoms: _466  and  _467
REMARK  180  A    between atoms: _467  and  _468
REMARK                            x       y       z     vdW  Elec       q    Type
REMARK                         _______ _______ _______ _____ _____    ______ ____
ROOT
ATOM      1  NE  ARG A   1       8.875  50.017  82.498  0.00  0.00    -0.265 N 
ATOM      2  HE  ARG A   1       9.384  50.304  83.359  0.00  0.00    +0.259 HD
ATOM      3  CZ  ARG A   1       9.273  48.864  81.924  0.00  0.00    +0.342 C 
ATOM      4  NH2 ARG A   1      10.261  48.193  82.507  0.00  0.00    -0.292 N 
ATOM      5 HH21 ARG A   1      10.699  48.562  83.375  0.00  0.00    +0.255 HD
ATOM      6 HH22 ARG A   1      10.597  47.299  82.095  0.00  0.00    +0.255 HD
ATOM      7  NH1 ARG A   1       8.732  48.372  80.790  0.00  0.00    -0.292 N 
ATOM      8 HH11 ARG A   1       9.081  47.476  80.394  0.00  0.00    +0.255 HD
ATOM      9 HH12 ARG A   1       7.966  48.889  80.312  0.00  0.00    +0.255 HD
ENDROOT
BRANCH   1  10
ATOM     10  CD  ARG A   1       7.797  50.920  82.042  0.00  0.00    +0.174 C 
BRANCH  10  11
ATOM     11  CG  ARG A   1       8.201  51.882  80.901  0.00  0.00    +0.045 C 
BRANCH  11  12
ATOM     12  CB  ARG A   1       9.164  53.012  81.281  0.00  0.00    +0.029 C 
BRANCH  12  13
ATOM     13  CA  ARG A   1       8.590  54.193  82.085  0.00  0.00    +0.133 C 
BRANCH  13  14
ATOM     14  N   ARG A   1       7.292  54.625  81.563  0.00  0.00    -0.239 NA
ATOM     15  H   ARG A   1       7.095  54.542  80.545  0.00  0.00    +0.142 HD
ENDBRANCH  13  14
BRANCH  13  16
ATOM     16  C   ARG A   1       9.641  55.318  82.152  0.00  0.00    +0.224 C 
ATOM     17  O   ARG A   1       9.925  55.986  81.147  0.00  0.00    -0.287 OA
ENDBRANCH  13  16
ENDBRANCH  12  13
ENDBRANCH  11  12
ENDBRANCH  10  11
ENDBRANCH   1  10
TORSDOF 6
REMARK  Name = ../refined-set-2016/3qfy/3qfy_pocket.pdb
REMARK  180 active torsions:
REMARK  status: ('A' for Active; 'I' for Inactive)
REMARK    1  A    between atoms: _1  and  _3
REMARK    2  A    between atoms: _3  and  _4
REMARK    3  A    between atoms: _3  and  _6
REMARK    4  A    between atoms: _6  and  _7
REMARK    5  A    between atoms: _7  and  _8
REMARK    6  A    between atoms: _8  and  _9
REMARK    7  A    between atoms: _18  and  _20
REMARK    8  A    between atoms: _20  and  _21
REMARK    9  A    between atoms: _20  and  _23
REMARK   10  A    between atoms: _23  and  _24
REMARK   11  A    between atoms: _24  and  _25
REMARK   12  A    between atoms: _28  and  _30
REMARK   13  A    between atoms: _30  and  _31
REMARK   14  A    between atoms: _30  and  _33
REMARK   15  A    between atoms: _33  and  _34
REMARK   16  A    between atoms: _34  and  _35
REMARK   17  A    between atoms: _35  and  _36
REMARK   18  A    between atoms: _45  and  _47
REMARK   19  A    between atoms: _47  and  _48
REMARK   20  A    between atoms: _50  and  _52
REMARK   21  A    between atoms: _52  and  _53
REMARK   22  A    between atoms: _52  and  _55
REMARK   23  A    between atoms: _55  and  _56
REMARK   24  A    between atoms: _62  and  _64
REMARK   25  A    between atoms: _64  and  _65
REMARK   26  A    between atoms: _64  and  _67
REMARK   27  A    between atoms: _67  and  _68
REMARK   28  A    between atoms: _68  and  _69
REMARK   29  A    between atoms: _69  and  _70
REMARK   30  A    between atoms: _79  and  _81
REMARK   31  A    between atoms: _81  and  _82
REMARK   32  A    between atoms: _81  and  _84
REMARK   33  A    between atoms: _84  and  _85
REMARK   34  A    between atoms: _88  and  _90
REMARK   35  A    between atoms: _90  and  _91
REMARK   36  A    between atoms: _90  and  _93
REMARK   37  A    between atoms: _93  and  _94
REMARK   38  A    between atoms: _96  and  _98
REMARK   39  A    between atoms: _98  and  _99
REMARK   40  A    between atoms: _98  and  _101
REMARK   41  A    between atoms: _101  and  _102
REMARK   42  A    between atoms: _102  and  _103
REMARK   43  A    between atoms: _108  and  _110
REMARK   44  A    between atoms: _110  and  _111
REMARK   45  A    between atoms: _110  and  _113
REMARK   46  A    between atoms: _113  and  _114
REMARK   47  A    between atoms: _119  and  _121
REMARK   48  A    between atoms: _121  and  _122
REMARK   49  A    between atoms: _121  and  _124
REMARK   50  A    between atoms: _124  and  _125
REMARK   51  A    between atoms: _128  and  _130
REMARK   52  A    between atoms: _130  and  _131
REMARK   53  A    between atoms: _130  and  _133
REMARK   54  A    between atoms: _133  and  _134
REMARK   55  A    between atoms: _140  and  _142
REMARK   56  A    between atoms: _142  and  _143
REMARK   57  A    between atoms: _142  and  _145
REMARK   58  A    between atoms: _145  and  _146
REMARK   59  A    between atoms: _149  and  _151
REMARK   60  A    between atoms: _151  and  _152
REMARK   61  A    between atoms: _151  and  _154
REMARK   62  A    between atoms: _154  and  _155
REMARK   63  A    between atoms: _158  and  _160
REMARK   64  A    between atoms: _160  and  _161
REMARK   65  A    between atoms: _160  and  _163
REMARK   66  A    between atoms: _163  and  _164
REMARK   67  A    between atoms: _174  and  _176
REMARK   68  A    between atoms: _176  and  _177
REMARK   69  A    between atoms: _180  and  _182
REMARK   70  A    between atoms: _182  and  _183
REMARK   71  A    between atoms: _182  and  _185
REMARK   72  A    between atoms: _185  and  _186
REMARK   73  A    between atoms: _189  and  _191
REMARK   74  A    between atoms: _191  and  _192
REMARK   75  A    between atoms: _191  and  _194
REMARK   76  A    between atoms: _194  and  _195
REMARK   77  A    between atoms: _205  and  _207
REMARK   78  A    between atoms: _207  and  _208
REMARK   79  A    between atoms: _207  and  _210
REMARK   80  A    between atoms: _210  and  _211
REMARK   81  A    between atoms: _216  and  _218
REMARK   82  A    between atoms: _218  and  _219
REMARK   83  A    between atoms: _218  and  _221
REMARK   84  A    between atoms: _221  and  _222
REMARK   85  A    between atoms: _225  and  _227
REMARK   86  A    between atoms: _227  and  _228
REMARK   87  A    between atoms: _227  and  _230
REMARK   88  A    between atoms: _232  and  _234
REMARK   89  A    between atoms: _234  and  _235
REMARK   90  A    between atoms: _234  and  _237
REMARK   91  A    between atoms: _237  and  _238
REMARK   92  A    between atoms: _241  and  _243
REMARK   93  A    between atoms: _243  and  _244
REMARK   94  A    between atoms: _243  and  _246
REMARK   95  A    between atoms: _246  and  _247
REMARK   96  A    between atoms: _252  and  _254
REMARK   97  A    between atoms: _254  and  _255
REMARK   98  A    between atoms: _254  and  _257
REMARK   99  A    between atoms: _257  and  _258
REMARK  100  A    between atoms: _258  and  _259
REMARK  101  A    between atoms: _264  and  _266
REMARK  102  A    between atoms: _266  and  _267
REMARK  103  A    between atoms: _266  and  _269
REMARK  104  A    between atoms: _269  and  _270
REMARK  105  A    between atoms: _276  and  _278
REMARK  106  A    between atoms: _278  and  _279
REMARK  107  A    between atoms: _278  and  _281
REMARK  108  A    between atoms: _281  and  _282
REMARK  109  A    between atoms: _282  and  _283
REMARK  110  A    between atoms: _283  and  _284
REMARK  111  A    between atoms: _293  and  _295
REMARK  112  A    between atoms: _295  and  _296
REMARK  113  A    between atoms: _295  and  _298
REMARK  114  A    between atoms: _298  and  _299
REMARK  115  A    between atoms: _299  and  _300
REMARK  116  A    between atoms: _303  and  _305
REMARK  117  A    between atoms: _305  and  _306
REMARK  118  A    between atoms: _305  and  _308
REMARK  119  A    between atoms: _308  and  _309
REMARK  120  A    between atoms: _312  and  _314
REMARK  121  A    between atoms: _314  and  _315
REMARK  122  A    between atoms: _314  and  _317
REMARK  123  A    between atoms: _317  and  _318
REMARK  124  A    between atoms: _323  and  _324
REMARK  125  A    between atoms: _326  and  _328
REMARK  126  A    between atoms: _328  and  _329
REMARK  127  A    between atoms: _328  and  _331
REMARK  128  A    between atoms: _331  and  _332
REMARK  129  A    between atoms: _332  and  _333
REMARK  130  A    between atoms: _333  and  _334
REMARK  131  A    between atoms: _334  and  _335
REMARK  132  A    between atoms: _339  and  _341
REMARK  133  A    between atoms: _341  and  _342
REMARK  134  A    between atoms: _341  and  _344
REMARK  135  A    between atoms: _344  and  _345
REMARK  136  A    between atoms: _345  and  _346
REMARK  137  A    between atoms: _349  and  _351
REMARK  138  A    between atoms: _351  and  _352
REMARK  139  A    between atoms: _351  and  _354
REMARK  140  A    between atoms: _354  and  _355
REMARK  141  A    between atoms: _361  and  _363
REMARK  142  A    between atoms: _363  and  _364
REMARK  143  A    between atoms: _363  and  _366
REMARK  144  A    between atoms: _366  and  _367
REMARK  145  A    between atoms: _372  and  _374
REMARK  146  A    between atoms: _374  and  _375
REMARK  147  A    between atoms: _374  and  _377
REMARK  148  A    between atoms: _377  and  _378
REMARK  149  A    between atoms: _383  and  _385
REMARK  150  A    between atoms: _385  and  _386
REMARK  151  A    between atoms: _385  and  _388
REMARK  152  A    between atoms: _388  and  _389
REMARK  153  A    between atoms: _399  and  _401
REMARK  154  A    between atoms: _401  and  _402
REMARK  155  A    between atoms: _401  and  _404
REMARK  156  A    between atoms: _404  and  _405
REMARK  157  A    between atoms: _405  and  _406
REMARK  158  A    between atoms: _411  and  _413
REMARK  159  A    between atoms: _413  and  _414
REMARK  160  A    between atoms: _413  and  _416
REMARK  161  A    between atoms: _416  and  _417
REMARK  162  A    between atoms: _422  and  _424
REMARK  163  A    between atoms: _424  and  _425
REMARK  164  A    between atoms: _424  and  _427
REMARK  165  A    between atoms: _427  and  _428
REMARK  166  A    between atoms: _431  and  _433
REMARK  167  A    between atoms: _433  and  _434
REMARK  168  A    between atoms: _433  and  _436
REMARK  169  A    between atoms: _436  and  _437
REMARK  170  A    between atoms: _440  and  _442
REMARK  171  A    between atoms: _442  and  _443
REMARK  172  A    between atoms: _445  and  _447
REMARK  173  A    between atoms: _447  and  _448
REMARK  174  A    between atoms: _447  and  _450
REMARK  175  A    between atoms: _450  and  _451
REMARK  176  A    between atoms: _461  and  _463
REMARK  177  A    between atoms: _463  and  _464
REMARK  178  A    between atoms: _463  and  _466
REMARK  179  A    between atoms: _466  and  _467
REMARK  180  A    between atoms: _467  and  _468
REMARK                            x       y       z     vdW  Elec       q    Type
REMARK                         _______ _______ _______ _____ _____    ______ ____
ROOT
ATOM      1  CA  ARG A   3      16.407  47.420  89.423  0.00  0.00    +0.149 C 
ENDROOT
BRANCH   1   4
ATOM      2  C   PHE A   2      16.387  49.785  89.824  0.00  0.00    +0.241 C 
ATOM      3  O   PHE A   2      17.590  49.784  89.736  0.00  0.00    -0.273 OA
ATOM      4  N   ARG A   3      15.678  48.680  89.640  0.00  0.00    -0.297 N 
ATOM      5  H   ARG A   3      14.638  48.703  89.649  0.00  0.00    +0.150 HD
BRANCH   2   6
ATOM      6  CA  PHE A   2      15.656  51.110  90.090  0.00  0.00    +0.153 C 
BRANCH   6   8
ATOM      7  C   GLY A   1      15.043  51.486  87.735  0.00  0.00    +0.240 C 
ATOM      8  N   PHE A   2      14.668  51.364  89.002  0.00  0.00    -0.297 N 
ATOM      9  H   PHE A   2      13.660  51.448  89.242  0.00  0.00    +0.150 HD
ATOM     10  O   GLY A   1      16.224  51.441  87.392  0.00  0.00    -0.274 OA
BRANCH   7  11
ATOM     11  CA  GLY A   1      13.926  51.692  86.739  0.00  0.00    +0.169 C 
BRANCH  11  12
ATOM     12  N   GLY A   1      14.271  52.712  85.744  0.00  0.00    -0.236 NA
ATOM     13  H   GLY A   1      14.500  52.416  84.774  0.00  0.00    +0.142 HD
ENDBRANCH  11  12
ENDBRANCH   7  11
ENDBRANCH   6   8
BRANCH   6  14
ATOM     14  CB  PHE A   2      14.952  51.096  91.438  0.00  0.00    +0.055 C 
BRANCH  14  15
ATOM     15  CG  PHE A   2      15.866  51.169  92.586  0.00  0.00    -0.020 A 
ATOM     16  CD2 PHE A   2      16.389  49.987  93.149  0.00  0.00    -0.004 A 
ATOM     17  CE2 PHE A   2      17.267  50.054  94.244  0.00  0.00    -0.000 A 
ATOM     18  CZ  PHE A   2      17.605  51.287  94.806  0.00  0.00    -0.000 A 
ATOM     19  CE1 PHE A   2      17.088  52.504  94.259  0.00  0.00    -0.000 A 
ATOM     20  CD1 PHE A   2      16.225  52.434  93.143  0.00  0.00    -0.004 A 
ENDBRANCH  14  15
ENDBRANCH   6  14
ENDBRANCH   2   6
ENDBRANCH   1   4
BRANCH   1  21
ATOM     21  C   ARG A   3      17.040  47.464  88.009  0.00  0.00    +0.241 C 
ATOM     22  O   ARG A   3      18.138  46.940  87.760  0.00  0.00    -0.273 OA
ATOM     23  N   ASP A   4      16.339  48.104  87.085  0.00  0.00    -0.297 N 
ATOM     24  H   ASP A   4      15.517  48.677  87.363  0.00  0.00    +0.150 HD
BRANCH  23  25
ATOM     25  CA  ASP A   4      16.713  48.009  85.686  0.00  0.00    +0.160 C 
BRANCH  25  26
ATOM     26  C   ASP A   4      18.038  48.728  85.476  0.00  0.00    +0.241 C 
ATOM     27  N   SER A   5      18.142  49.931  86.035  0.00  0.00    -0.296 N 
ATOM     28  H   SER A   5      17.348  50.306  86.593  0.00  0.00    +0.150 HD
ATOM     29  O   ASP A   4      18.965  48.168  84.843  0.00  0.00    -0.273 OA
BRANCH  27  30
ATOM     30  CA  SER A   5      19.340  50.725  85.880  0.00  0.00    +0.166 C 
BRANCH  30  31
ATOM     31  C   SER A   5      20.501  50.269  86.718  0.00  0.00    +0.229 C 
ATOM     32  O   SER A   5      21.624  50.441  86.297  0.00  0.00    -0.286 OA
ENDBRANCH  30  31
BRANCH  30  33
ATOM     33  CB  SER A   5      19.036  52.203  86.108  0.00  0.00    +0.165 C 
BRANCH  33  34
ATOM     34  OG  SER A   5      18.521  52.661  84.859  0.00  0.00    -0.380 OA
ATOM     35  H   SER A   5      19.203  52.529  84.154  0.00  0.00    +0.211 HD
ENDBRANCH  33  34
ENDBRANCH  30  33
ENDBRANCH  27  30
ENDBRANCH  25  26
BRANCH  25  36
ATOM     36  CB  ASP A   4      15.637  48.606  84.775  0.00  0.00    +0.143 C 
BRANCH  36  37
ATOM     37  CG  ASP A   4      14.279  47.943  84.948  0.00  0.00    +0.367 C 
ATOM     38  OD2 ASP A   4      13.458  48.536  85.656  0.00  0.00    -0.246 OA
ATOM     39  OD1 ASP A   4      14.019  46.843  84.402  0.00  0.00    -0.246 OA
ENDBRANCH  36  37
ENDBRANCH  25  36
ENDBRANCH  23  25
ENDBRANCH   1  21
BRANCH   1  40
ATOM     40  CB  ARG A   3      15.511  46.180  89.631  0.00  0.00    +0.033 C 
BRANCH  40  41
ATOM     41  CG  ARG A   3      14.699  45.755  88.440  0.00  0.00    +0.045 C 
BRANCH  41  42
ATOM     42  CD  ARG A   3      14.075  44.358  88.585  0.00  0.00    +0.174 C 
BRANCH  42  43
ATOM     43  NE  ARG A   3      13.063  44.187  89.625  0.00  0.00    -0.265 N 
ATOM     44  HE  ARG A   3      13.403  43.897  90.564  0.00  0.00    +0.259 HD
ATOM     45  CZ  ARG A   3      11.738  44.367  89.491  0.00  0.00    +0.342 C 
ATOM     46  NH2 ARG A   3      10.921  44.131  90.512  0.00  0.00    -0.292 N 
ATOM     47 HH21 ARG A   3      11.306  43.805  91.421  0.00  0.00    +0.255 HD
ATOM     48 HH22 ARG A   3       9.897  44.272  90.402  0.00  0.00    +0.255 HD
ATOM     49  NH1 ARG A   3      11.210  44.791  88.360  0.00  0.00    -0.292 N 
ATOM     50 HH11 ARG A   3      10.181  44.922  88.283  0.00  0.00    +0.255 HD
ATOM     51 HH12 ARG A   3      11.822  44.995  87.544  0.00  0.00    +0.255 HD
ENDBRANCH  42  43
ENDBRANCH  41  42
ENDBRANCH  40  41
ENDBRANCH   1  40
TORSDOF 20
REMARK  Name = ../refined-set-2016/3qfy/3qfy_pocket.pdb
REMARK  180 active torsions:
REMARK  status: ('A' for Active; 'I' for Inactive)
REMARK    1  A    between atoms: _1  and  _3
REMARK    2  A    between atoms: _3  and  _4
REMARK    3  A    between atoms: _3  and  _6
REMARK    4  A    between atoms: _6  and  _7
REMARK    5  A    between atoms: _7  and  _8
REMARK    6  A    between atoms: _8  and  _9
REMARK    7  A    between atoms: _18  and  _20
REMARK    8  A    between atoms: _20  and  _21
REMARK    9  A    between atoms: _20  and  _23
REMARK   10  A    between atoms: _23  and  _24
REMARK   11  A    between atoms: _24  and  _25
REMARK   12  A    between atoms: _28  and  _30
REMARK   13  A    between atoms: _30  and  _31
REMARK   14  A    between atoms: _30  and  _33
REMARK   15  A    between atoms: _33  and  _34
REMARK   16  A    between atoms: _34  and  _35
REMARK   17  A    between atoms: _35  and  _36
REMARK   18  A    between atoms: _45  and  _47
REMARK   19  A    between atoms: _47  and  _48
REMARK   20  A    between atoms: _50  and  _52
REMARK   21  A    between atoms: _52  and  _53
REMARK   22  A    between atoms: _52  and  _55
REMARK   23  A    between atoms: _55  and  _56
REMARK   24  A    between atoms: _62  and  _64
REMARK   25  A    between atoms: _64  and  _65
REMARK   26  A    between atoms: _64  and  _67
REMARK   27  A    between atoms: _67  and  _68
REMARK   28  A    between atoms: _68  and  _69
REMARK   29  A    between atoms: _69  and  _70
REMARK   30  A    between atoms: _79  and  _81
REMARK   31  A    between atoms: _81  and  _82
REMARK   32  A    between atoms: _81  and  _84
REMARK   33  A    between atoms: _84  and  _85
REMARK   34  A    between atoms: _88  and  _90
REMARK   35  A    between atoms: _90  and  _91
REMARK   36  A    between atoms: _90  and  _93
REMARK   37  A    between atoms: _93  and  _94
REMARK   38  A    between atoms: _96  and  _98
REMARK   39  A    between atoms: _98  and  _99
REMARK   40  A    between atoms: _98  and  _101
REMARK   41  A    between atoms: _101  and  _102
REMARK   42  A    between atoms: _102  and  _103
REMARK   43  A    between atoms: _108  and  _110
REMARK   44  A    between atoms: _110  and  _111
REMARK   45  A    between atoms: _110  and  _113
REMARK   46  A    between atoms: _113  and  _114
REMARK   47  A    between atoms: _119  and  _121
REMARK   48  A    between atoms: _121  and  _122
REMARK   49  A    between atoms: _121  and  _124
REMARK   50  A    between atoms: _124  and  _125
REMARK   51  A    between atoms: _128  and  _130
REMARK   52  A    between atoms: _130  and  _131
REMARK   53  A    between atoms: _130  and  _133
REMARK   54  A    between atoms: _133  and  _134
REMARK   55  A    between atoms: _140  and  _142
REMARK   56  A    between atoms: _142  and  _143
REMARK   57  A    between atoms: _142  and  _145
REMARK   58  A    between atoms: _145  and  _146
REMARK   59  A    between atoms: _149  and  _151
REMARK   60  A    between atoms: _151  and  _152
REMARK   61  A    between atoms: _151  and  _154
REMARK   62  A    between atoms: _154  and  _155
REMARK   63  A    between atoms: _158  and  _160
REMARK   64  A    between atoms: _160  and  _161
REMARK   65  A    between atoms: _160  and  _163
REMARK   66  A    between atoms: _163  and  _164
REMARK   67  A    between atoms: _174  and  _176
REMARK   68  A    between atoms: _176  and  _177
REMARK   69  A    between atoms: _180  and  _182
REMARK   70  A    between atoms: _182  and  _183
REMARK   71  A    between atoms: _182  and  _185
REMARK   72  A    between atoms: _185  and  _186
REMARK   73  A    between atoms: _189  and  _191
REMARK   74  A    between atoms: _191  and  _192
REMARK   75  A    between atoms: _191  and  _194
REMARK   76  A    between atoms: _194  and  _195
REMARK   77  A    between atoms: _205  and  _207
REMARK   78  A    between atoms: _207  and  _208
REMARK   79  A    between atoms: _207  and  _210
REMARK   80  A    between atoms: _210  and  _211
REMARK   81  A    between atoms: _216  and  _218
REMARK   82  A    between atoms: _218  and  _219
REMARK   83  A    between atoms: _218  and  _221
REMARK   84  A    between atoms: _221  and  _222
REMARK   85  A    between atoms: _225  and  _227
REMARK   86  A    between atoms: _227  and  _228
REMARK   87  A    between atoms: _227  and  _230
REMARK   88  A    between atoms: _232  and  _234
REMARK   89  A    between atoms: _234  and  _235
REMARK   90  A    between atoms: _234  and  _237
REMARK   91  A    between atoms: _237  and  _238
REMARK   92  A    between atoms: _241  and  _243
REMARK   93  A    between atoms: _243  and  _244
REMARK   94  A    between atoms: _243  and  _246
REMARK   95  A    between atoms: _246  and  _247
REMARK   96  A    between atoms: _252  and  _254
REMARK   97  A    between atoms: _254  and  _255
REMARK   98  A    between atoms: _254  and  _257
REMARK   99  A    between atoms: _257  and  _258
REMARK  100  A    between atoms: _258  and  _259
REMARK  101  A    between atoms: _264  and  _266
REMARK  102  A    between atoms: _266  and  _267
REMARK  103  A    between atoms: _266  and  _269
REMARK  104  A    between atoms: _269  and  _270
REMARK  105  A    between atoms: _276  and  _278
REMARK  106  A    between atoms: _278  and  _279
REMARK  107  A    between atoms: _278  and  _281
REMARK  108  A    between atoms: _281  and  _282
REMARK  109  A    between atoms: _282  and  _283
REMARK  110  A    between atoms: _283  and  _284
REMARK  111  A    between atoms: _293  and  _295
REMARK  112  A    between atoms: _295  and  _296
REMARK  113  A    between atoms: _295  and  _298
REMARK  114  A    between atoms: _298  and  _299
REMARK  115  A    between atoms: _299  and  _300
REMARK  116  A    between atoms: _303  and  _305
REMARK  117  A    between atoms: _305  and  _306
REMARK  118  A    between atoms: _305  and  _308
REMARK  119  A    between atoms: _308  and  _309
REMARK  120  A    between atoms: _312  and  _314
REMARK  121  A    between atoms: _314  and  _315
REMARK  122  A    between atoms: _314  and  _317
REMARK  123  A    between atoms: _317  and  _318
REMARK  124  A    between atoms: _323  and  _324
REMARK  125  A    between atoms: _326  and  _328
REMARK  126  A    between atoms: _328  and  _329
REMARK  127  A    between atoms: _328  and  _331
REMARK  128  A    between atoms: _331  and  _332
REMARK  129  A    between atoms: _332  and  _333
REMARK  130  A    between atoms: _333  and  _334
REMARK  131  A    between atoms: _334  and  _335
REMARK  132  A    between atoms: _339  and  _341
REMARK  133  A    between atoms: _341  and  _342
REMARK  134  A    between atoms: _341  and  _344
REMARK  135  A    between atoms: _344  and  _345
REMARK  136  A    between atoms: _345  and  _346
REMARK  137  A    between atoms: _349  and  _351
REMARK  138  A    between atoms: _351  and  _352
REMARK  139  A    between atoms: _351  and  _354
REMARK  140  A    between atoms: _354  and  _355
REMARK  141  A    between atoms: _361  and  _363
REMARK  142  A    between atoms: _363  and  _364
REMARK  143  A    between atoms: _363  and  _366
REMARK  144  A    between atoms: _366  and  _367
REMARK  145  A    between atoms: _372  and  _374
REMARK  146  A    between atoms: _374  and  _375
REMARK  147  A    between atoms: _374  and  _377
REMARK  148  A    between atoms: _377  and  _378
REMARK  149  A    between atoms: _383  and  _385
REMARK  150  A    between atoms: _385  and  _386
REMARK  151  A    between atoms: _385  and  _388
REMARK  152  A    between atoms: _388  and  _389
REMARK  153  A    between atoms: _399  and  _401
REMARK  154  A    between atoms: _401  and  _402
REMARK  155  A    between atoms: _401  and  _404
REMARK  156  A    between atoms: _404  and  _405
REMARK  157  A    between atoms: _405  and  _406
REMARK  158  A    between atoms: _411  and  _413
REMARK  159  A    between atoms: _413  and  _414
REMARK  160  A    between atoms: _413  and  _416
REMARK  161  A    between atoms: _416  and  _417
REMARK  162  A    between atoms: _422  and  _424
REMARK  163  A    between atoms: _424  and  _425
REMARK  164  A    between atoms: _424  and  _427
REMARK  165  A    between atoms: _427  and  _428
REMARK  166  A    between atoms: _431  and  _433
REMARK  167  A    between atoms: _433  and  _434
REMARK  168  A    between atoms: _433  and  _436
REMARK  169  A    between atoms: _436  and  _437
REMARK  170  A    between atoms: _440  and  _442
REMARK  171  A    between atoms: _442  and  _443
REMARK  172  A    between atoms: _445  and  _447
REMARK  173  A    between atoms: _447  and  _448
REMARK  174  A    between atoms: _447  and  _450
REMARK  175  A    between atoms: _450  and  _451
REMARK  176  A    between atoms: _461  and  _463
REMARK  177  A    between atoms: _463  and  _464
REMARK  178  A    between atoms: _463  and  _466
REMARK  179  A    between atoms: _466  and  _467
REMARK  180  A    between atoms: _467  and  _468
REMARK                            x       y       z     vdW  Elec       q    Type
REMARK                         _______ _______ _______ _____ _____    ______ ____
ROOT
ATOM      1  CB  GLN A   1      20.555  44.808  86.244  0.00  0.00    +0.035 C 
ENDROOT
BRANCH   1   2
ATOM      2  CA  GLN A   1      21.619  45.850  86.513  0.00  0.00    +0.134 C 
BRANCH   2   3
ATOM      3  N   GLN A   1      21.073  46.959  87.332  0.00  0.00    -0.239 NA
ATOM      4  H   GLN A   1      20.045  47.056  87.459  0.00  0.00    +0.142 HD
ENDBRANCH   2   3
BRANCH   2   5
ATOM      5  C   GLN A   1      22.251  46.341  85.231  0.00  0.00    +0.224 C 
ATOM      6  O   GLN A   1      23.285  45.815  84.854  0.00  0.00    -0.287 OA
ENDBRANCH   2   5
ENDBRANCH   1   2
BRANCH   1   7
ATOM      7  CG  GLN A   1      19.968  44.211  87.537  0.00  0.00    +0.087 C 
BRANCH   7   8
ATOM      8  CD  GLN A   1      18.769  43.337  87.237  0.00  0.00    +0.219 C 
ATOM      9  NE2 GLN A   1      17.588  43.901  87.415  0.00  0.00    -0.329 N 
ATOM     10 HE21 GLN A   1      17.524  44.859  87.814  0.00  0.00    +0.145 HD
ATOM     11 HE22 GLN A   1      16.722  43.387  87.157  0.00  0.00    +0.145 HD
ATOM     12  OE1 GLN A   1      18.902  42.181  86.759  0.00  0.00    -0.275 OA
ENDBRANCH   7   8
ENDBRANCH   1   7
TORSDOF 5
REMARK  Name = ../refined-set-2016/3qfy/3qfy_pocket.pdb
REMARK  180 active torsions:
REMARK  status: ('A' for Active; 'I' for Inactive)
REMARK    1  A    between atoms: _1  and  _3
REMARK    2  A    between atoms: _3  and  _4
REMARK    3  A    between atoms: _3  and  _6
REMARK    4  A    between atoms: _6  and  _7
REMARK    5  A    between atoms: _7  and  _8
REMARK    6  A    between atoms: _8  and  _9
REMARK    7  A    between atoms: _18  and  _20
REMARK    8  A    between atoms: _20  and  _21
REMARK    9  A    between atoms: _20  and  _23
REMARK   10  A    between atoms: _23  and  _24
REMARK   11  A    between atoms: _24  and  _25
REMARK   12  A    between atoms: _28  and  _30
REMARK   13  A    between atoms: _30  and  _31
REMARK   14  A    between atoms: _30  and  _33
REMARK   15  A    between atoms: _33  and  _34
REMARK   16  A    between atoms: _34  and  _35
REMARK   17  A    between atoms: _35  and  _36
REMARK   18  A    between atoms: _45  and  _47
REMARK   19  A    between atoms: _47  and  _48
REMARK   20  A    between atoms: _50  and  _52
REMARK   21  A    between atoms: _52  and  _53
REMARK   22  A    between atoms: _52  and  _55
REMARK   23  A    between atoms: _55  and  _56
REMARK   24  A    between atoms: _62  and  _64
REMARK   25  A    between atoms: _64  and  _65
REMARK   26  A    between atoms: _64  and  _67
REMARK   27  A    between atoms: _67  and  _68
REMARK   28  A    between atoms: _68  and  _69
REMARK   29  A    between atoms: _69  and  _70
REMARK   30  A    between atoms: _79  and  _81
REMARK   31  A    between atoms: _81  and  _82
REMARK   32  A    between atoms: _81  and  _84
REMARK   33  A    between atoms: _84  and  _85
REMARK   34  A    between atoms: _88  and  _90
REMARK   35  A    between atoms: _90  and  _91
REMARK   36  A    between atoms: _90  and  _93
REMARK   37  A    between atoms: _93  and  _94
REMARK   38  A    between atoms: _96  and  _98
REMARK   39  A    between atoms: _98  and  _99
REMARK   40  A    between atoms: _98  and  _101
REMARK   41  A    between atoms: _101  and  _102
REMARK   42  A    between atoms: _102  and  _103
REMARK   43  A    between atoms: _108  and  _110
REMARK   44  A    between atoms: _110  and  _111
REMARK   45  A    between atoms: _110  and  _113
REMARK   46  A    between atoms: _113  and  _114
REMARK   47  A    between atoms: _119  and  _121
REMARK   48  A    between atoms: _121  and  _122
REMARK   49  A    between atoms: _121  and  _124
REMARK   50  A    between atoms: _124  and  _125
REMARK   51  A    between atoms: _128  and  _130
REMARK   52  A    between atoms: _130  and  _131
REMARK   53  A    between atoms: _130  and  _133
REMARK   54  A    between atoms: _133  and  _134
REMARK   55  A    between atoms: _140  and  _142
REMARK   56  A    between atoms: _142  and  _143
REMARK   57  A    between atoms: _142  and  _145
REMARK   58  A    between atoms: _145  and  _146
REMARK   59  A    between atoms: _149  and  _151
REMARK   60  A    between atoms: _151  and  _152
REMARK   61  A    between atoms: _151  and  _154
REMARK   62  A    between atoms: _154  and  _155
REMARK   63  A    between atoms: _158  and  _160
REMARK   64  A    between atoms: _160  and  _161
REMARK   65  A    between atoms: _160  and  _163
REMARK   66  A    between atoms: _163  and  _164
REMARK   67  A    between atoms: _174  and  _176
REMARK   68  A    between atoms: _176  and  _177
REMARK   69  A    between atoms: _180  and  _182
REMARK   70  A    between atoms: _182  and  _183
REMARK   71  A    between atoms: _182  and  _185
REMARK   72  A    between atoms: _185  and  _186
REMARK   73  A    between atoms: _189  and  _191
REMARK   74  A    between atoms: _191  and  _192
REMARK   75  A    between atoms: _191  and  _194
REMARK   76  A    between atoms: _194  and  _195
REMARK   77  A    between atoms: _205  and  _207
REMARK   78  A    between atoms: _207  and  _208
REMARK   79  A    between atoms: _207  and  _210
REMARK   80  A    between atoms: _210  and  _211
REMARK   81  A    between atoms: _216  and  _218
REMARK   82  A    between atoms: _218  and  _219
REMARK   83  A    between atoms: _218  and  _221
REMARK   84  A    between atoms: _221  and  _222
REMARK   85  A    between atoms: _225  and  _227
REMARK   86  A    between atoms: _227  and  _228
REMARK   87  A    between atoms: _227  and  _230
REMARK   88  A    between atoms: _232  and  _234
REMARK   89  A    between atoms: _234  and  _235
REMARK   90  A    between atoms: _234  and  _237
REMARK   91  A    between atoms: _237  and  _238
REMARK   92  A    between atoms: _241  and  _243
REMARK   93  A    between atoms: _243  and  _244
REMARK   94  A    between atoms: _243  and  _246
REMARK   95  A    between atoms: _246  and  _247
REMARK   96  A    between atoms: _252  and  _254
REMARK   97  A    between atoms: _254  and  _255
REMARK   98  A    between atoms: _254  and  _257
REMARK   99  A    between atoms: _257  and  _258
REMARK  100  A    between atoms: _258  and  _259
REMARK  101  A    between atoms: _264  and  _266
REMARK  102  A    between atoms: _266  and  _267
REMARK  103  A    between atoms: _266  and  _269
REMARK  104  A    between atoms: _269  and  _270
REMARK  105  A    between atoms: _276  and  _278
REMARK  106  A    between atoms: _278  and  _279
REMARK  107  A    between atoms: _278  and  _281
REMARK  108  A    between atoms: _281  and  _282
REMARK  109  A    between atoms: _282  and  _283
REMARK  110  A    between atoms: _283  and  _284
REMARK  111  A    between atoms: _293  and  _295
REMARK  112  A    between atoms: _295  and  _296
REMARK  113  A    between atoms: _295  and  _298
REMARK  114  A    between atoms: _298  and  _299
REMARK  115  A    between atoms: _299  and  _300
REMARK  116  A    between atoms: _303  and  _305
REMARK  117  A    between atoms: _305  and  _306
REMARK  118  A    between atoms: _305  and  _308
REMARK  119  A    between atoms: _308  and  _309
REMARK  120  A    between atoms: _312  and  _314
REMARK  121  A    between atoms: _314  and  _315
REMARK  122  A    between atoms: _314  and  _317
REMARK  123  A    between atoms: _317  and  _318
REMARK  124  A    between atoms: _323  and  _324
REMARK  125  A    between atoms: _326  and  _328
REMARK  126  A    between atoms: _328  and  _329
REMARK  127  A    between atoms: _328  and  _331
REMARK  128  A    between atoms: _331  and  _332
REMARK  129  A    between atoms: _332  and  _333
REMARK  130  A    between atoms: _333  and  _334
REMARK  131  A    between atoms: _334  and  _335
REMARK  132  A    between atoms: _339  and  _341
REMARK  133  A    between atoms: _341  and  _342
REMARK  134  A    between atoms: _341  and  _344
REMARK  135  A    between atoms: _344  and  _345
REMARK  136  A    between atoms: _345  and  _346
REMARK  137  A    between atoms: _349  and  _351
REMARK  138  A    between atoms: _351  and  _352
REMARK  139  A    between atoms: _351  and  _354
REMARK  140  A    between atoms: _354  and  _355
REMARK  141  A    between atoms: _361  and  _363
REMARK  142  A    between atoms: _363  and  _364
REMARK  143  A    between atoms: _363  and  _366
REMARK  144  A    between atoms: _366  and  _367
REMARK  145  A    between atoms: _372  and  _374
REMARK  146  A    between atoms: _374  and  _375
REMARK  147  A    between atoms: _374  and  _377
REMARK  148  A    between atoms: _377  and  _378
REMARK  149  A    between atoms: _383  and  _385
REMARK  150  A    between atoms: _385  and  _386
REMARK  151  A    between atoms: _385  and  _388
REMARK  152  A    between atoms: _388  and  _389
REMARK  153  A    between atoms: _399  and  _401
REMARK  154  A    between atoms: _401  and  _402
REMARK  155  A    between atoms: _401  and  _404
REMARK  156  A    between atoms: _404  and  _405
REMARK  157  A    between atoms: _405  and  _406
REMARK  158  A    between atoms: _411  and  _413
REMARK  159  A    between atoms: _413  and  _414
REMARK  160  A    between atoms: _413  and  _416
REMARK  161  A    between atoms: _416  and  _417
REMARK  162  A    between atoms: _422  and  _424
REMARK  163  A    between atoms: _424  and  _425
REMARK  164  A    between atoms: _424  and  _427
REMARK  165  A    between atoms: _427  and  _428
REMARK  166  A    between atoms: _431  and  _433
REMARK  167  A    between atoms: _433  and  _434
REMARK  168  A    between atoms: _433  and  _436
REMARK  169  A    between atoms: _436  and  _437
REMARK  170  A    between atoms: _440  and  _442
REMARK  171  A    between atoms: _442  and  _443
REMARK  172  A    between atoms: _445  and  _447
REMARK  173  A    between atoms: _447  and  _448
REMARK  174  A    between atoms: _447  and  _450
REMARK  175  A    between atoms: _450  and  _451
REMARK  176  A    between atoms: _461  and  _463
REMARK  177  A    between atoms: _463  and  _464
REMARK  178  A    between atoms: _463  and  _466
REMARK  179  A    between atoms: _466  and  _467
REMARK  180  A    between atoms: _467  and  _468
REMARK                            x       y       z     vdW  Elec       q    Type
REMARK                         _______ _______ _______ _____ _____    ______ ____
ROOT
ATOM      1  CB  HIS A   1       9.341  50.763  91.411  0.00  0.00    +0.072 C 
ENDROOT
BRANCH   1   2
ATOM      2  CG  HIS A   1       9.533  49.516  90.602  0.00  0.00    +0.082 A 
ATOM      3  ND1 HIS A   1      10.335  48.477  91.035  0.00  0.00    -0.227 NA
ATOM      4  CE1 HIS A   1      10.296  47.504  90.137  0.00  0.00    +0.199 A 
ATOM      5  NE2 HIS A   1       9.517  47.878  89.134  0.00  0.00    -0.221 NA
ATOM      6  CD2 HIS A   1       9.018  49.131  89.401  0.00  0.00    +0.115 A 
ENDBRANCH   1   2
BRANCH   1   7
ATOM      7  CA  HIS A   1      10.640  51.477  91.752  0.00  0.00    +0.139 C 
BRANCH   7   8
ATOM      8  N   HIS A   1      10.399  52.532  92.731  0.00  0.00    -0.239 NA
ATOM      9  H   HIS A   1       9.430  52.866  92.909  0.00  0.00    +0.142 HD
ENDBRANCH   7   8
BRANCH   7  10
ATOM     10  C   HIS A   1      11.314  52.084  90.522  0.00  0.00    +0.224 C 
ATOM     11  O   HIS A   1      12.023  51.380  89.779  0.00  0.00    -0.287 OA
ENDBRANCH   7  10
ENDBRANCH   1   7
TORSDOF 4
REMARK  Name = ../refined-set-2016/3qfy/3qfy_pocket.pdb
REMARK  180 active torsions:
REMARK  status: ('A' for Active; 'I' for Inactive)
REMARK    1  A    between atoms: _1  and  _3
REMARK    2  A    between atoms: _3  and  _4
REMARK    3  A    between atoms: _3  and  _6
REMARK    4  A    between atoms: _6  and  _7
REMARK    5  A    between atoms: _7  and  _8
REMARK    6  A    between atoms: _8  and  _9
REMARK    7  A    between atoms: _18  and  _20
REMARK    8  A    between atoms: _20  and  _21
REMARK    9  A    between atoms: _20  and  _23
REMARK   10  A    between atoms: _23  and  _24
REMARK   11  A    between atoms: _24  and  _25
REMARK   12  A    between atoms: _28  and  _30
REMARK   13  A    between atoms: _30  and  _31
REMARK   14  A    between atoms: _30  and  _33
REMARK   15  A    between atoms: _33  and  _34
REMARK   16  A    between atoms: _34  and  _35
REMARK   17  A    between atoms: _35  and  _36
REMARK   18  A    between atoms: _45  and  _47
REMARK   19  A    between atoms: _47  and  _48
REMARK   20  A    between atoms: _50  and  _52
REMARK   21  A    between atoms: _52  and  _53
REMARK   22  A    between atoms: _52  and  _55
REMARK   23  A    between atoms: _55  and  _56
REMARK   24  A    between atoms: _62  and  _64
REMARK   25  A    between atoms: _64  and  _65
REMARK   26  A    between atoms: _64  and  _67
REMARK   27  A    between atoms: _67  and  _68
REMARK   28  A    between atoms: _68  and  _69
REMARK   29  A    between atoms: _69  and  _70
REMARK   30  A    between atoms: _79  and  _81
REMARK   31  A    between atoms: _81  and  _82
REMARK   32  A    between atoms: _81  and  _84
REMARK   33  A    between atoms: _84  and  _85
REMARK   34  A    between atoms: _88  and  _90
REMARK   35  A    between atoms: _90  and  _91
REMARK   36  A    between atoms: _90  and  _93
REMARK   37  A    between atoms: _93  and  _94
REMARK   38  A    between atoms: _96  and  _98
REMARK   39  A    between atoms: _98  and  _99
REMARK   40  A    between atoms: _98  and  _101
REMARK   41  A    between atoms: _101  and  _102
REMARK   42  A    between atoms: _102  and  _103
REMARK   43  A    between atoms: _108  and  _110
REMARK   44  A    between atoms: _110  and  _111
REMARK   45  A    between atoms: _110  and  _113
REMARK   46  A    between atoms: _113  and  _114
REMARK   47  A    between atoms: _119  and  _121
REMARK   48  A    between atoms: _121  and  _122
REMARK   49  A    between atoms: _121  and  _124
REMARK   50  A    between atoms: _124  and  _125
REMARK   51  A    between atoms: _128  and  _130
REMARK   52  A    between atoms: _130  and  _131
REMARK   53  A    between atoms: _130  and  _133
REMARK   54  A    between atoms: _133  and  _134
REMARK   55  A    between atoms: _140  and  _142
REMARK   56  A    between atoms: _142  and  _143
REMARK   57  A    between atoms: _142  and  _145
REMARK   58  A    between atoms: _145  and  _146
REMARK   59  A    between atoms: _149  and  _151
REMARK   60  A    between atoms: _151  and  _152
REMARK   61  A    between atoms: _151  and  _154
REMARK   62  A    between atoms: _154  and  _155
REMARK   63  A    between atoms: _158  and  _160
REMARK   64  A    between atoms: _160  and  _161
REMARK   65  A    between atoms: _160  and  _163
REMARK   66  A    between atoms: _163  and  _164
REMARK   67  A    between atoms: _174  and  _176
REMARK   68  A    between atoms: _176  and  _177
REMARK   69  A    between atoms: _180  and  _182
REMARK   70  A    between atoms: _182  and  _183
REMARK   71  A    between atoms: _182  and  _185
REMARK   72  A    between atoms: _185  and  _186
REMARK   73  A    between atoms: _189  and  _191
REMARK   74  A    between atoms: _191  and  _192
REMARK   75  A    between atoms: _191  and  _194
REMARK   76  A    between atoms: _194  and  _195
REMARK   77  A    between atoms: _205  and  _207
REMARK   78  A    between atoms: _207  and  _208
REMARK   79  A    between atoms: _207  and  _210
REMARK   80  A    between atoms: _210  and  _211
REMARK   81  A    between atoms: _216  and  _218
REMARK   82  A    between atoms: _218  and  _219
REMARK   83  A    between atoms: _218  and  _221
REMARK   84  A    between atoms: _221  and  _222
REMARK   85  A    between atoms: _225  and  _227
REMARK   86  A    between atoms: _227  and  _228
REMARK   87  A    between atoms: _227  and  _230
REMARK   88  A    between atoms: _232  and  _234
REMARK   89  A    between atoms: _234  and  _235
REMARK   90  A    between atoms: _234  and  _237
REMARK   91  A    between atoms: _237  and  _238
REMARK   92  A    between atoms: _241  and  _243
REMARK   93  A    between atoms: _243  and  _244
REMARK   94  A    between atoms: _243  and  _246
REMARK   95  A    between atoms: _246  and  _247
REMARK   96  A    between atoms: _252  and  _254
REMARK   97  A    between atoms: _254  and  _255
REMARK   98  A    between atoms: _254  and  _257
REMARK   99  A    between atoms: _257  and  _258
REMARK  100  A    between atoms: _258  and  _259
REMARK  101  A    between atoms: _264  and  _266
REMARK  102  A    between atoms: _266  and  _267
REMARK  103  A    between atoms: _266  and  _269
REMARK  104  A    between atoms: _269  and  _270
REMARK  105  A    between atoms: _276  and  _278
REMARK  106  A    between atoms: _278  and  _279
REMARK  107  A    between atoms: _278  and  _281
REMARK  108  A    between atoms: _281  and  _282
REMARK  109  A    between atoms: _282  and  _283
REMARK  110  A    between atoms: _283  and  _284
REMARK  111  A    between atoms: _293  and  _295
REMARK  112  A    between atoms: _295  and  _296
REMARK  113  A    between atoms: _295  and  _298
REMARK  114  A    between atoms: _298  and  _299
REMARK  115  A    between atoms: _299  and  _300
REMARK  116  A    between atoms: _303  and  _305
REMARK  117  A    between atoms: _305  and  _306
REMARK  118  A    between atoms: _305  and  _308
REMARK  119  A    between atoms: _308  and  _309
REMARK  120  A    between atoms: _312  and  _314
REMARK  121  A    between atoms: _314  and  _315
REMARK  122  A    between atoms: _314  and  _317
REMARK  123  A    between atoms: _317  and  _318
REMARK  124  A    between atoms: _323  and  _324
REMARK  125  A    between atoms: _326  and  _328
REMARK  126  A    between atoms: _328  and  _329
REMARK  127  A    between atoms: _328  and  _331
REMARK  128  A    between atoms: _331  and  _332
REMARK  129  A    between atoms: _332  and  _333
REMARK  130  A    between atoms: _333  and  _334
REMARK  131  A    between atoms: _334  and  _335
REMARK  132  A    between atoms: _339  and  _341
REMARK  133  A    between atoms: _341  and  _342
REMARK  134  A    between atoms: _341  and  _344
REMARK  135  A    between atoms: _344  and  _345
REMARK  136  A    between atoms: _345  and  _346
REMARK  137  A    between atoms: _349  and  _351
REMARK  138  A    between atoms: _351  and  _352
REMARK  139  A    between atoms: _351  and  _354
REMARK  140  A    between atoms: _354  and  _355
REMARK  141  A    between atoms: _361  and  _363
REMARK  142  A    between atoms: _363  and  _364
REMARK  143  A    between atoms: _363  and  _366
REMARK  144  A    between atoms: _366  and  _367
REMARK  145  A    between atoms: _372  and  _374
REMARK  146  A    between atoms: _374  and  _375
REMARK  147  A    between atoms: _374  and  _377
REMARK  148  A    between atoms: _377  and  _378
REMARK  149  A    between atoms: _383  and  _385
REMARK  150  A    between atoms: _385  and  _386
REMARK  151  A    between atoms: _385  and  _388
REMARK  152  A    between atoms: _388  and  _389
REMARK  153  A    between atoms: _399  and  _401
REMARK  154  A    between atoms: _401  and  _402
REMARK  155  A    between atoms: _401  and  _404
REMARK  156  A    between atoms: _404  and  _405
REMARK  157  A    between atoms: _405  and  _406
REMARK  158  A    between atoms: _411  and  _413
REMARK  159  A    between atoms: _413  and  _414
REMARK  160  A    between atoms: _413  and  _416
REMARK  161  A    between atoms: _416  and  _417
REMARK  162  A    between atoms: _422  and  _424
REMARK  163  A    between atoms: _424  and  _425
REMARK  164  A    between atoms: _424  and  _427
REMARK  165  A    between atoms: _427  and  _428
REMARK  166  A    between atoms: _431  and  _433
REMARK  167  A    between atoms: _433  and  _434
REMARK  168  A    between atoms: _433  and  _436
REMARK  169  A    between atoms: _436  and  _437
REMARK  170  A    between atoms: _440  and  _442
REMARK  171  A    between atoms: _442  and  _443
REMARK  172  A    between atoms: _445  and  _447
REMARK  173  A    between atoms: _447  and  _448
REMARK  174  A    between atoms: _447  and  _450
REMARK  175  A    between atoms: _450  and  _451
REMARK  176  A    between atoms: _461  and  _463
REMARK  177  A    between atoms: _463  and  _464
REMARK  178  A    between atoms: _463  and  _466
REMARK  179  A    between atoms: _466  and  _467
REMARK  180  A    between atoms: _467  and  _468
REMARK                            x       y       z     vdW  Elec       q    Type
REMARK                         _______ _______ _______ _____ _____    ______ ____
ROOT
ATOM      1  CA  ILE A   1       4.418  51.550  87.750  0.00  0.00    +0.133 C 
ENDROOT
BRANCH   1   2
ATOM      2  N   ILE A   1       4.516  52.976  88.114  0.00  0.00    -0.239 NA
ATOM      3  H   ILE A   1       5.360  53.346  88.597  0.00  0.00    +0.142 HD
ENDBRANCH   1   2
BRANCH   1   4
ATOM      4  C   ILE A   1       4.560  50.705  89.027  0.00  0.00    +0.224 C 
ATOM      5  O   ILE A   1       4.972  49.551  88.981  0.00  0.00    -0.287 OA
ENDBRANCH   1   4
BRANCH   1   6
ATOM      6  CB  ILE A   1       5.385  51.147  86.622  0.00  0.00    +0.023 C 
ATOM      7  CG2 ILE A   1       5.090  51.956  85.274  0.00  0.00    +0.002 C 
BRANCH   6   8
ATOM      8  CG1 ILE A   1       6.832  51.339  87.038  0.00  0.00    +0.002 C 
ATOM      9  CD1 ILE A   1       7.798  50.639  86.038  0.00  0.00    +0.000 C 
ENDBRANCH   6   8
ENDBRANCH   1   6
TORSDOF 4
REMARK  Name = ../refined-set-2016/3qfy/3qfy_pocket.pdb
REMARK  180 active torsions:
REMARK  status: ('A' for Active; 'I' for Inactive)
REMARK    1  A    between atoms: _1  and  _3
REMARK    2  A    between atoms: _3  and  _4
REMARK    3  A    between atoms: _3  and  _6
REMARK    4  A    between atoms: _6  and  _7
REMARK    5  A    between atoms: _7  and  _8
REMARK    6  A    between atoms: _8  and  _9
REMARK    7  A    between atoms: _18  and  _20
REMARK    8  A    between atoms: _20  and  _21
REMARK    9  A    between atoms: _20  and  _23
REMARK   10  A    between atoms: _23  and  _24
REMARK   11  A    between atoms: _24  and  _25
REMARK   12  A    between atoms: _28  and  _30
REMARK   13  A    between atoms: _30  and  _31
REMARK   14  A    between atoms: _30  and  _33
REMARK   15  A    between atoms: _33  and  _34
REMARK   16  A    between atoms: _34  and  _35
REMARK   17  A    between atoms: _35  and  _36
REMARK   18  A    between atoms: _45  and  _47
REMARK   19  A    between atoms: _47  and  _48
REMARK   20  A    between atoms: _50  and  _52
REMARK   21  A    between atoms: _52  and  _53
REMARK   22  A    between atoms: _52  and  _55
REMARK   23  A    between atoms: _55  and  _56
REMARK   24  A    between atoms: _62  and  _64
REMARK   25  A    between atoms: _64  and  _65
REMARK   26  A    between atoms: _64  and  _67
REMARK   27  A    between atoms: _67  and  _68
REMARK   28  A    between atoms: _68  and  _69
REMARK   29  A    between atoms: _69  and  _70
REMARK   30  A    between atoms: _79  and  _81
REMARK   31  A    between atoms: _81  and  _82
REMARK   32  A    between atoms: _81  and  _84
REMARK   33  A    between atoms: _84  and  _85
REMARK   34  A    between atoms: _88  and  _90
REMARK   35  A    between atoms: _90  and  _91
REMARK   36  A    between atoms: _90  and  _93
REMARK   37  A    between atoms: _93  and  _94
REMARK   38  A    between atoms: _96  and  _98
REMARK   39  A    between atoms: _98  and  _99
REMARK   40  A    between atoms: _98  and  _101
REMARK   41  A    between atoms: _101  and  _102
REMARK   42  A    between atoms: _102  and  _103
REMARK   43  A    between atoms: _108  and  _110
REMARK   44  A    between atoms: _110  and  _111
REMARK   45  A    between atoms: _110  and  _113
REMARK   46  A    between atoms: _113  and  _114
REMARK   47  A    between atoms: _119  and  _121
REMARK   48  A    between atoms: _121  and  _122
REMARK   49  A    between atoms: _121  and  _124
REMARK   50  A    between atoms: _124  and  _125
REMARK   51  A    between atoms: _128  and  _130
REMARK   52  A    between atoms: _130  and  _131
REMARK   53  A    between atoms: _130  and  _133
REMARK   54  A    between atoms: _133  and  _134
REMARK   55  A    between atoms: _140  and  _142
REMARK   56  A    between atoms: _142  and  _143
REMARK   57  A    between atoms: _142  and  _145
REMARK   58  A    between atoms: _145  and  _146
REMARK   59  A    between atoms: _149  and  _151
REMARK   60  A    between atoms: _151  and  _152
REMARK   61  A    between atoms: _151  and  _154
REMARK   62  A    between atoms: _154  and  _155
REMARK   63  A    between atoms: _158  and  _160
REMARK   64  A    between atoms: _160  and  _161
REMARK   65  A    between atoms: _160  and  _163
REMARK   66  A    between atoms: _163  and  _164
REMARK   67  A    between atoms: _174  and  _176
REMARK   68  A    between atoms: _176  and  _177
REMARK   69  A    between atoms: _180  and  _182
REMARK   70  A    between atoms: _182  and  _183
REMARK   71  A    between atoms: _182  and  _185
REMARK   72  A    between atoms: _185  and  _186
REMARK   73  A    between atoms: _189  and  _191
REMARK   74  A    between atoms: _191  and  _192
REMARK   75  A    between atoms: _191  and  _194
REMARK   76  A    between atoms: _194  and  _195
REMARK   77  A    between atoms: _205  and  _207
REMARK   78  A    between atoms: _207  and  _208
REMARK   79  A    between atoms: _207  and  _210
REMARK   80  A    between atoms: _210  and  _211
REMARK   81  A    between atoms: _216  and  _218
REMARK   82  A    between atoms: _218  and  _219
REMARK   83  A    between atoms: _218  and  _221
REMARK   84  A    between atoms: _221  and  _222
REMARK   85  A    between atoms: _225  and  _227
REMARK   86  A    between atoms: _227  and  _228
REMARK   87  A    between atoms: _227  and  _230
REMARK   88  A    between atoms: _232  and  _234
REMARK   89  A    between atoms: _234  and  _235
REMARK   90  A    between atoms: _234  and  _237
REMARK   91  A    between atoms: _237  and  _238
REMARK   92  A    between atoms: _241  and  _243
REMARK   93  A    between atoms: _243  and  _244
REMARK   94  A    between atoms: _243  and  _246
REMARK   95  A    between atoms: _246  and  _247
REMARK   96  A    between atoms: _252  and  _254
REMARK   97  A    between atoms: _254  and  _255
REMARK   98  A    between atoms: _254  and  _257
REMARK   99  A    between atoms: _257  and  _258
REMARK  100  A    between atoms: _258  and  _259
REMARK  101  A    between atoms: _264  and  _266
REMARK  102  A    between atoms: _266  and  _267
REMARK  103  A    between atoms: _266  and  _269
REMARK  104  A    between atoms: _269  and  _270
REMARK  105  A    between atoms: _276  and  _278
REMARK  106  A    between atoms: _278  and  _279
REMARK  107  A    between atoms: _278  and  _281
REMARK  108  A    between atoms: _281  and  _282
REMARK  109  A    between atoms: _282  and  _283
REMARK  110  A    between atoms: _283  and  _284
REMARK  111  A    between atoms: _293  and  _295
REMARK  112  A    between atoms: _295  and  _296
REMARK  113  A    between atoms: _295  and  _298
REMARK  114  A    between atoms: _298  and  _299
REMARK  115  A    between atoms: _299  and  _300
REMARK  116  A    between atoms: _303  and  _305
REMARK  117  A    between atoms: _305  and  _306
REMARK  118  A    between atoms: _305  and  _308
REMARK  119  A    between atoms: _308  and  _309
REMARK  120  A    between atoms: _312  and  _314
REMARK  121  A    between atoms: _314  and  _315
REMARK  122  A    between atoms: _314  and  _317
REMARK  123  A    between atoms: _317  and  _318
REMARK  124  A    between atoms: _323  and  _324
REMARK  125  A    between atoms: _326  and  _328
REMARK  126  A    between atoms: _328  and  _329
REMARK  127  A    between atoms: _328  and  _331
REMARK  128  A    between atoms: _331  and  _332
REMARK  129  A    between atoms: _332  and  _333
REMARK  130  A    between atoms: _333  and  _334
REMARK  131  A    between atoms: _334  and  _335
REMARK  132  A    between atoms: _339  and  _341
REMARK  133  A    between atoms: _341  and  _342
REMARK  134  A    between atoms: _341  and  _344
REMARK  135  A    between atoms: _344  and  _345
REMARK  136  A    between atoms: _345  and  _346
REMARK  137  A    between atoms: _349  and  _351
REMARK  138  A    between atoms: _351  and  _352
REMARK  139  A    between atoms: _351  and  _354
REMARK  140  A    between atoms: _354  and  _355
REMARK  141  A    between atoms: _361  and  _363
REMARK  142  A    between atoms: _363  and  _364
REMARK  143  A    between atoms: _363  and  _366
REMARK  144  A    between atoms: _366  and  _367
REMARK  145  A    between atoms: _372  and  _374
REMARK  146  A    between atoms: _374  and  _375
REMARK  147  A    between atoms: _374  and  _377
REMARK  148  A    between atoms: _377  and  _378
REMARK  149  A    between atoms: _383  and  _385
REMARK  150  A    between atoms: _385  and  _386
REMARK  151  A    between atoms: _385  and  _388
REMARK  152  A    between atoms: _388  and  _389
REMARK  153  A    between atoms: _399  and  _401
REMARK  154  A    between atoms: _401  and  _402
REMARK  155  A    between atoms: _401  and  _404
REMARK  156  A    between atoms: _404  and  _405
REMARK  157  A    between atoms: _405  and  _406
REMARK  158  A    between atoms: _411  and  _413
REMARK  159  A    between atoms: _413  and  _414
REMARK  160  A    between atoms: _413  and  _416
REMARK  161  A    between atoms: _416  and  _417
REMARK  162  A    between atoms: _422  and  _424
REMARK  163  A    between atoms: _424  and  _425
REMARK  164  A    between atoms: _424  and  _427
REMARK  165  A    between atoms: _427  and  _428
REMARK  166  A    between atoms: _431  and  _433
REMARK  167  A    between atoms: _433  and  _434
REMARK  168  A    between atoms: _433  and  _436
REMARK  169  A    between atoms: _436  and  _437
REMARK  170  A    between atoms: _440  and  _442
REMARK  171  A    between atoms: _442  and  _443
REMARK  172  A    between atoms: _445  and  _447
REMARK  173  A    between atoms: _447  and  _448
REMARK  174  A    between atoms: _447  and  _450
REMARK  175  A    between atoms: _450  and  _451
REMARK  176  A    between atoms: _461  and  _463
REMARK  177  A    between atoms: _463  and  _464
REMARK  178  A    between atoms: _463  and  _466
REMARK  179  A    between atoms: _466  and  _467
REMARK  180  A    between atoms: _467  and  _468
REMARK                            x       y       z     vdW  Elec       q    Type
REMARK                         _______ _______ _______ _____ _____    ______ ____
ROOT
ATOM      1  CB  PHE A   1       9.414  45.858  93.641  0.00  0.00    +0.051 C 
ENDROOT
BRANCH   1   2
ATOM      2  CG  PHE A   1       8.268  46.090  92.630  0.00  0.00    -0.020 A 
ATOM      3  CD2 PHE A   1       7.794  47.377  92.373  0.00  0.00    -0.004 A 
ATOM      4  CE2 PHE A   1       6.789  47.613  91.411  0.00  0.00    -0.000 A 
ATOM      5  CZ  PHE A   1       6.254  46.544  90.651  0.00  0.00    -0.000 A 
ATOM      6  CE1 PHE A   1       6.740  45.245  90.867  0.00  0.00    -0.000 A 
ATOM      7  CD1 PHE A   1       7.760  45.030  91.848  0.00  0.00    -0.004 A 
ENDBRANCH   1   2
BRANCH   1   8
ATOM      8  CA  PHE A   1       8.985  45.496  95.074  0.00  0.00    +0.137 C 
BRANCH   8   9
ATOM      9  N   PHE A   1       8.410  46.660  95.733  0.00  0.00    -0.239 NA
ATOM     10  H   PHE A   1       8.769  47.602  95.476  0.00  0.00    +0.142 HD
ENDBRANCH   8   9
BRANCH   8  11
ATOM     11  C   PHE A   1      10.222  45.121  95.940  0.00  0.00    +0.224 C 
ATOM     12  O   PHE A   1      11.223  45.867  95.960  0.00  0.00    -0.287 OA
ENDBRANCH   8  11
ENDBRANCH   1   8
TORSDOF 4
REMARK  Name = ../refined-set-2016/3qfy/3qfy_pocket.pdb
REMARK  180 active torsions:
REMARK  status: ('A' for Active; 'I' for Inactive)
REMARK    1  A    between atoms: _1  and  _3
REMARK    2  A    between atoms: _3  and  _4
REMARK    3  A    between atoms: _3  and  _6
REMARK    4  A    between atoms: _6  and  _7
REMARK    5  A    between atoms: _7  and  _8
REMARK    6  A    between atoms: _8  and  _9
REMARK    7  A    between atoms: _18  and  _20
REMARK    8  A    between atoms: _20  and  _21
REMARK    9  A    between atoms: _20  and  _23
REMARK   10  A    between atoms: _23  and  _24
REMARK   11  A    between atoms: _24  and  _25
REMARK   12  A    between atoms: _28  and  _30
REMARK   13  A    between atoms: _30  and  _31
REMARK   14  A    between atoms: _30  and  _33
REMARK   15  A    between atoms: _33  and  _34
REMARK   16  A    between atoms: _34  and  _35
REMARK   17  A    between atoms: _35  and  _36
REMARK   18  A    between atoms: _45  and  _47
REMARK   19  A    between atoms: _47  and  _48
REMARK   20  A    between atoms: _50  and  _52
REMARK   21  A    between atoms: _52  and  _53
REMARK   22  A    between atoms: _52  and  _55
REMARK   23  A    between atoms: _55  and  _56
REMARK   24  A    between atoms: _62  and  _64
REMARK   25  A    between atoms: _64  and  _65
REMARK   26  A    between atoms: _64  and  _67
REMARK   27  A    between atoms: _67  and  _68
REMARK   28  A    between atoms: _68  and  _69
REMARK   29  A    between atoms: _69  and  _70
REMARK   30  A    between atoms: _79  and  _81
REMARK   31  A    between atoms: _81  and  _82
REMARK   32  A    between atoms: _81  and  _84
REMARK   33  A    between atoms: _84  and  _85
REMARK   34  A    between atoms: _88  and  _90
REMARK   35  A    between atoms: _90  and  _91
REMARK   36  A    between atoms: _90  and  _93
REMARK   37  A    between atoms: _93  and  _94
REMARK   38  A    between atoms: _96  and  _98
REMARK   39  A    between atoms: _98  and  _99
REMARK   40  A    between atoms: _98  and  _101
REMARK   41  A    between atoms: _101  and  _102
REMARK   42  A    between atoms: _102  and  _103
REMARK   43  A    between atoms: _108  and  _110
REMARK   44  A    between atoms: _110  and  _111
REMARK   45  A    between atoms: _110  and  _113
REMARK   46  A    between atoms: _113  and  _114
REMARK   47  A    between atoms: _119  and  _121
REMARK   48  A    between atoms: _121  and  _122
REMARK   49  A    between atoms: _121  and  _124
REMARK   50  A    between atoms: _124  and  _125
REMARK   51  A    between atoms: _128  and  _130
REMARK   52  A    between atoms: _130  and  _131
REMARK   53  A    between atoms: _130  and  _133
REMARK   54  A    between atoms: _133  and  _134
REMARK   55  A    between atoms: _140  and  _142
REMARK   56  A    between atoms: _142  and  _143
REMARK   57  A    between atoms: _142  and  _145
REMARK   58  A    between atoms: _145  and  _146
REMARK   59  A    between atoms: _149  and  _151
REMARK   60  A    between atoms: _151  and  _152
REMARK   61  A    between atoms: _151  and  _154
REMARK   62  A    between atoms: _154  and  _155
REMARK   63  A    between atoms: _158  and  _160
REMARK   64  A    between atoms: _160  and  _161
REMARK   65  A    between atoms: _160  and  _163
REMARK   66  A    between atoms: _163  and  _164
REMARK   67  A    between atoms: _174  and  _176
REMARK   68  A    between atoms: _176  and  _177
REMARK   69  A    between atoms: _180  and  _182
REMARK   70  A    between atoms: _182  and  _183
REMARK   71  A    between atoms: _182  and  _185
REMARK   72  A    between atoms: _185  and  _186
REMARK   73  A    between atoms: _189  and  _191
REMARK   74  A    between atoms: _191  and  _192
REMARK   75  A    between atoms: _191  and  _194
REMARK   76  A    between atoms: _194  and  _195
REMARK   77  A    between atoms: _205  and  _207
REMARK   78  A    between atoms: _207  and  _208
REMARK   79  A    between atoms: _207  and  _210
REMARK   80  A    between atoms: _210  and  _211
REMARK   81  A    between atoms: _216  and  _218
REMARK   82  A    between atoms: _218  and  _219
REMARK   83  A    between atoms: _218  and  _221
REMARK   84  A    between atoms: _221  and  _222
REMARK   85  A    between atoms: _225  and  _227
REMARK   86  A    between atoms: _227  and  _228
REMARK   87  A    between atoms: _227  and  _230
REMARK   88  A    between atoms: _232  and  _234
REMARK   89  A    between atoms: _234  and  _235
REMARK   90  A    between atoms: _234  and  _237
REMARK   91  A    between atoms: _237  and  _238
REMARK   92  A    between atoms: _241  and  _243
REMARK   93  A    between atoms: _243  and  _244
REMARK   94  A    between atoms: _243  and  _246
REMARK   95  A    between atoms: _246  and  _247
REMARK   96  A    between atoms: _252  and  _254
REMARK   97  A    between atoms: _254  and  _255
REMARK   98  A    between atoms: _254  and  _257
REMARK   99  A    between atoms: _257  and  _258
REMARK  100  A    between atoms: _258  and  _259
REMARK  101  A    between atoms: _264  and  _266
REMARK  102  A    between atoms: _266  and  _267
REMARK  103  A    between atoms: _266  and  _269
REMARK  104  A    between atoms: _269  and  _270
REMARK  105  A    between atoms: _276  and  _278
REMARK  106  A    between atoms: _278  and  _279
REMARK  107  A    between atoms: _278  and  _281
REMARK  108  A    between atoms: _281  and  _282
REMARK  109  A    between atoms: _282  and  _283
REMARK  110  A    between atoms: _283  and  _284
REMARK  111  A    between atoms: _293  and  _295
REMARK  112  A    between atoms: _295  and  _296
REMARK  113  A    between atoms: _295  and  _298
REMARK  114  A    between atoms: _298  and  _299
REMARK  115  A    between atoms: _299  and  _300
REMARK  116  A    between atoms: _303  and  _305
REMARK  117  A    between atoms: _305  and  _306
REMARK  118  A    between atoms: _305  and  _308
REMARK  119  A    between atoms: _308  and  _309
REMARK  120  A    between atoms: _312  and  _314
REMARK  121  A    between atoms: _314  and  _315
REMARK  122  A    between atoms: _314  and  _317
REMARK  123  A    between atoms: _317  and  _318
REMARK  124  A    between atoms: _323  and  _324
REMARK  125  A    between atoms: _326  and  _328
REMARK  126  A    between atoms: _328  and  _329
REMARK  127  A    between atoms: _328  and  _331
REMARK  128  A    between atoms: _331  and  _332
REMARK  129  A    between atoms: _332  and  _333
REMARK  130  A    between atoms: _333  and  _334
REMARK  131  A    between atoms: _334  and  _335
REMARK  132  A    between atoms: _339  and  _341
REMARK  133  A    between atoms: _341  and  _342
REMARK  134  A    between atoms: _341  and  _344
REMARK  135  A    between atoms: _344  and  _345
REMARK  136  A    between atoms: _345  and  _346
REMARK  137  A    between atoms: _349  and  _351
REMARK  138  A    between atoms: _351  and  _352
REMARK  139  A    between atoms: _351  and  _354
REMARK  140  A    between atoms: _354  and  _355
REMARK  141  A    between atoms: _361  and  _363
REMARK  142  A    between atoms: _363  and  _364
REMARK  143  A    between atoms: _363  and  _366
REMARK  144  A    between atoms: _366  and  _367
REMARK  145  A    between atoms: _372  and  _374
REMARK  146  A    between atoms: _374  and  _375
REMARK  147  A    between atoms: _374  and  _377
REMARK  148  A    between atoms: _377  and  _378
REMARK  149  A    between atoms: _383  and  _385
REMARK  150  A    between atoms: _385  and  _386
REMARK  151  A    between atoms: _385  and  _388
REMARK  152  A    between atoms: _388  and  _389
REMARK  153  A    between atoms: _399  and  _401
REMARK  154  A    between atoms: _401  and  _402
REMARK  155  A    between atoms: _401  and  _404
REMARK  156  A    between atoms: _404  and  _405
REMARK  157  A    between atoms: _405  and  _406
REMARK  158  A    between atoms: _411  and  _413
REMARK  159  A    between atoms: _413  and  _414
REMARK  160  A    between atoms: _413  and  _416
REMARK  161  A    between atoms: _416  and  _417
REMARK  162  A    between atoms: _422  and  _424
REMARK  163  A    between atoms: _424  and  _425
REMARK  164  A    between atoms: _424  and  _427
REMARK  165  A    between atoms: _427  and  _428
REMARK  166  A    between atoms: _431  and  _433
REMARK  167  A    between atoms: _433  and  _434
REMARK  168  A    between atoms: _433  and  _436
REMARK  169  A    between atoms: _436  and  _437
REMARK  170  A    between atoms: _440  and  _442
REMARK  171  A    between atoms: _442  and  _443
REMARK  172  A    between atoms: _445  and  _447
REMARK  173  A    between atoms: _447  and  _448
REMARK  174  A    between atoms: _447  and  _450
REMARK  175  A    between atoms: _450  and  _451
REMARK  176  A    between atoms: _461  and  _463
REMARK  177  A    between atoms: _463  and  _464
REMARK  178  A    between atoms: _463  and  _466
REMARK  179  A    between atoms: _466  and  _467
REMARK  180  A    between atoms: _467  and  _468
REMARK                            x       y       z     vdW  Elec       q    Type
REMARK                         _______ _______ _______ _____ _____    ______ ____
ROOT
ATOM      1  C   ASP A   1      14.820  43.861  95.021  0.00  0.00    +0.239 C 
ATOM      2  N   ASP A   2      14.076  44.972  94.907  0.00  0.00    -0.298 N 
ATOM      3  H   ASP A   2      13.058  44.942  95.119  0.00  0.00    +0.150 HD
ATOM      4  O   ASP A   1      16.047  43.868  94.887  0.00  0.00    -0.274 OA
ENDROOT
BRANCH   1   5
ATOM      5  CA  ASP A   1      14.106  42.559  95.330  0.00  0.00    +0.156 C 
BRANCH   5   6
ATOM      6  N   ASP A   1      12.781  42.872  95.916  0.00  0.00    -0.238 NA
ATOM      7  H   ASP A   1      11.947  42.838  95.296  0.00  0.00    +0.142 HD
ENDBRANCH   5   6
BRANCH   5   8
ATOM      8  CB  ASP A   1      14.002  41.717  94.043  0.00  0.00    +0.140 C 
BRANCH   8   9
ATOM      9  CG  ASP A   1      13.350  42.491  92.892  0.00  0.00    +0.367 C 
ATOM     10  OD2 ASP A   1      12.261  43.048  93.136  0.00  0.00    -0.246 OA
ATOM     11  OD1 ASP A   1      13.915  42.591  91.755  0.00  0.00    -0.246 OA
ENDBRANCH   8   9
ENDBRANCH   5   8
ENDBRANCH   1   5
BRANCH   2  12
ATOM     12  CA  ASP A   2      14.714  46.251  94.474  0.00  0.00    +0.148 C 
BRANCH  12  13
ATOM     13  C   ASP A   2      15.969  46.634  95.271  0.00  0.00    +0.227 C 
ATOM     14  O   ASP A   2      16.998  46.915  94.680  0.00  0.00    -0.286 OA
ENDBRANCH  12  13
BRANCH  12  15
ATOM     15  CB  ASP A   2      13.739  47.451  94.468  0.00  0.00    +0.142 C 
BRANCH  15  16
ATOM     16  CG  ASP A   2      13.019  47.623  93.140  0.00  0.00    +0.367 C 
ATOM     17  OD2 ASP A   2      12.033  48.421  93.078  0.00  0.00    -0.246 OA
ATOM     18  OD1 ASP A   2      13.427  46.946  92.163  0.00  0.00    -0.246 OA
ENDBRANCH  15  16
ENDBRANCH  12  15
ENDBRANCH   2  12
TORSDOF 8
REMARK  Name = ../refined-set-2016/3qfy/3qfy_pocket.pdb
REMARK  180 active torsions:
REMARK  status: ('A' for Active; 'I' for Inactive)
REMARK    1  A    between atoms: _1  and  _3
REMARK    2  A    between atoms: _3  and  _4
REMARK    3  A    between atoms: _3  and  _6
REMARK    4  A    between atoms: _6  and  _7
REMARK    5  A    between atoms: _7  and  _8
REMARK    6  A    between atoms: _8  and  _9
REMARK    7  A    between atoms: _18  and  _20
REMARK    8  A    between atoms: _20  and  _21
REMARK    9  A    between atoms: _20  and  _23
REMARK   10  A    between atoms: _23  and  _24
REMARK   11  A    between atoms: _24  and  _25
REMARK   12  A    between atoms: _28  and  _30
REMARK   13  A    between atoms: _30  and  _31
REMARK   14  A    between atoms: _30  and  _33
REMARK   15  A    between atoms: _33  and  _34
REMARK   16  A    between atoms: _34  and  _35
REMARK   17  A    between atoms: _35  and  _36
REMARK   18  A    between atoms: _45  and  _47
REMARK   19  A    between atoms: _47  and  _48
REMARK   20  A    between atoms: _50  and  _52
REMARK   21  A    between atoms: _52  and  _53
REMARK   22  A    between atoms: _52  and  _55
REMARK   23  A    between atoms: _55  and  _56
REMARK   24  A    between atoms: _62  and  _64
REMARK   25  A    between atoms: _64  and  _65
REMARK   26  A    between atoms: _64  and  _67
REMARK   27  A    between atoms: _67  and  _68
REMARK   28  A    between atoms: _68  and  _69
REMARK   29  A    between atoms: _69  and  _70
REMARK   30  A    between atoms: _79  and  _81
REMARK   31  A    between atoms: _81  and  _82
REMARK   32  A    between atoms: _81  and  _84
REMARK   33  A    between atoms: _84  and  _85
REMARK   34  A    between atoms: _88  and  _90
REMARK   35  A    between atoms: _90  and  _91
REMARK   36  A    between atoms: _90  and  _93
REMARK   37  A    between atoms: _93  and  _94
REMARK   38  A    between atoms: _96  and  _98
REMARK   39  A    between atoms: _98  and  _99
REMARK   40  A    between atoms: _98  and  _101
REMARK   41  A    between atoms: _101  and  _102
REMARK   42  A    between atoms: _102  and  _103
REMARK   43  A    between atoms: _108  and  _110
REMARK   44  A    between atoms: _110  and  _111
REMARK   45  A    between atoms: _110  and  _113
REMARK   46  A    between atoms: _113  and  _114
REMARK   47  A    between atoms: _119  and  _121
REMARK   48  A    between atoms: _121  and  _122
REMARK   49  A    between atoms: _121  and  _124
REMARK   50  A    between atoms: _124  and  _125
REMARK   51  A    between atoms: _128  and  _130
REMARK   52  A    between atoms: _130  and  _131
REMARK   53  A    between atoms: _130  and  _133
REMARK   54  A    between atoms: _133  and  _134
REMARK   55  A    between atoms: _140  and  _142
REMARK   56  A    between atoms: _142  and  _143
REMARK   57  A    between atoms: _142  and  _145
REMARK   58  A    between atoms: _145  and  _146
REMARK   59  A    between atoms: _149  and  _151
REMARK   60  A    between atoms: _151  and  _152
REMARK   61  A    between atoms: _151  and  _154
REMARK   62  A    between atoms: _154  and  _155
REMARK   63  A    between atoms: _158  and  _160
REMARK   64  A    between atoms: _160  and  _161
REMARK   65  A    between atoms: _160  and  _163
REMARK   66  A    between atoms: _163  and  _164
REMARK   67  A    between atoms: _174  and  _176
REMARK   68  A    between atoms: _176  and  _177
REMARK   69  A    between atoms: _180  and  _182
REMARK   70  A    between atoms: _182  and  _183
REMARK   71  A    between atoms: _182  and  _185
REMARK   72  A    between atoms: _185  and  _186
REMARK   73  A    between atoms: _189  and  _191
REMARK   74  A    between atoms: _191  and  _192
REMARK   75  A    between atoms: _191  and  _194
REMARK   76  A    between atoms: _194  and  _195
REMARK   77  A    between atoms: _205  and  _207
REMARK   78  A    between atoms: _207  and  _208
REMARK   79  A    between atoms: _207  and  _210
REMARK   80  A    between atoms: _210  and  _211
REMARK   81  A    between atoms: _216  and  _218
REMARK   82  A    between atoms: _218  and  _219
REMARK   83  A    between atoms: _218  and  _221
REMARK   84  A    between atoms: _221  and  _222
REMARK   85  A    between atoms: _225  and  _227
REMARK   86  A    between atoms: _227  and  _228
REMARK   87  A    between atoms: _227  and  _230
REMARK   88  A    between atoms: _232  and  _234
REMARK   89  A    between atoms: _234  and  _235
REMARK   90  A    between atoms: _234  and  _237
REMARK   91  A    between atoms: _237  and  _238
REMARK   92  A    between atoms: _241  and  _243
REMARK   93  A    between atoms: _243  and  _244
REMARK   94  A    between atoms: _243  and  _246
REMARK   95  A    between atoms: _246  and  _247
REMARK   96  A    between atoms: _252  and  _254
REMARK   97  A    between atoms: _254  and  _255
REMARK   98  A    between atoms: _254  and  _257
REMARK   99  A    between atoms: _257  and  _258
REMARK  100  A    between atoms: _258  and  _259
REMARK  101  A    between atoms: _264  and  _266
REMARK  102  A    between atoms: _266  and  _267
REMARK  103  A    between atoms: _266  and  _269
REMARK  104  A    between atoms: _269  and  _270
REMARK  105  A    between atoms: _276  and  _278
REMARK  106  A    between atoms: _278  and  _279
REMARK  107  A    between atoms: _278  and  _281
REMARK  108  A    between atoms: _281  and  _282
REMARK  109  A    between atoms: _282  and  _283
REMARK  110  A    between atoms: _283  and  _284
REMARK  111  A    between atoms: _293  and  _295
REMARK  112  A    between atoms: _295  and  _296
REMARK  113  A    between atoms: _295  and  _298
REMARK  114  A    between atoms: _298  and  _299
REMARK  115  A    between atoms: _299  and  _300
REMARK  116  A    between atoms: _303  and  _305
REMARK  117  A    between atoms: _305  and  _306
REMARK  118  A    between atoms: _305  and  _308
REMARK  119  A    between atoms: _308  and  _309
REMARK  120  A    between atoms: _312  and  _314
REMARK  121  A    between atoms: _314  and  _315
REMARK  122  A    between atoms: _314  and  _317
REMARK  123  A    between atoms: _317  and  _318
REMARK  124  A    between atoms: _323  and  _324
REMARK  125  A    between atoms: _326  and  _328
REMARK  126  A    between atoms: _328  and  _329
REMARK  127  A    between atoms: _328  and  _331
REMARK  128  A    between atoms: _331  and  _332
REMARK  129  A    between atoms: _332  and  _333
REMARK  130  A    between atoms: _333  and  _334
REMARK  131  A    between atoms: _334  and  _335
REMARK  132  A    between atoms: _339  and  _341
REMARK  133  A    between atoms: _341  and  _342
REMARK  134  A    between atoms: _341  and  _344
REMARK  135  A    between atoms: _344  and  _345
REMARK  136  A    between atoms: _345  and  _346
REMARK  137  A    between atoms: _349  and  _351
REMARK  138  A    between atoms: _351  and  _352
REMARK  139  A    between atoms: _351  and  _354
REMARK  140  A    between atoms: _354  and  _355
REMARK  141  A    between atoms: _361  and  _363
REMARK  142  A    between atoms: _363  and  _364
REMARK  143  A    between atoms: _363  and  _366
REMARK  144  A    between atoms: _366  and  _367
REMARK  145  A    between atoms: _372  and  _374
REMARK  146  A    between atoms: _374  and  _375
REMARK  147  A    between atoms: _374  and  _377
REMARK  148  A    between atoms: _377  and  _378
REMARK  149  A    between atoms: _383  and  _385
REMARK  150  A    between atoms: _385  and  _386
REMARK  151  A    between atoms: _385  and  _388
REMARK  152  A    between atoms: _388  and  _389
REMARK  153  A    between atoms: _399  and  _401
REMARK  154  A    between atoms: _401  and  _402
REMARK  155  A    between atoms: _401  and  _404
REMARK  156  A    between atoms: _404  and  _405
REMARK  157  A    between atoms: _405  and  _406
REMARK  158  A    between atoms: _411  and  _413
REMARK  159  A    between atoms: _413  and  _414
REMARK  160  A    between atoms: _413  and  _416
REMARK  161  A    between atoms: _416  and  _417
REMARK  162  A    between atoms: _422  and  _424
REMARK  163  A    between atoms: _424  and  _425
REMARK  164  A    between atoms: _424  and  _427
REMARK  165  A    between atoms: _427  and  _428
REMARK  166  A    between atoms: _431  and  _433
REMARK  167  A    between atoms: _433  and  _434
REMARK  168  A    between atoms: _433  and  _436
REMARK  169  A    between atoms: _436  and  _437
REMARK  170  A    between atoms: _440  and  _442
REMARK  171  A    between atoms: _442  and  _443
REMARK  172  A    between atoms: _445  and  _447
REMARK  173  A    between atoms: _447  and  _448
REMARK  174  A    between atoms: _447  and  _450
REMARK  175  A    between atoms: _450  and  _451
REMARK  176  A    between atoms: _461  and  _463
REMARK  177  A    between atoms: _463  and  _464
REMARK  178  A    between atoms: _463  and  _466
REMARK  179  A    between atoms: _466  and  _467
REMARK  180  A    between atoms: _467  and  _468
REMARK                            x       y       z     vdW  Elec       q    Type
REMARK                         _______ _______ _______ _____ _____    ______ ____
ROOT
ATOM      1  CG  TRP A   1      18.389  44.613  91.793  0.00  0.00    -0.002 A 
ATOM      2  CD1 TRP A   1      17.047  44.409  91.960  0.00  0.00    +0.068 A 
ATOM      3  NE1 TRP A   1      16.689  43.175  91.490  0.00  0.00    -0.352 N 
ATOM      4  HE1 TRP A   1      15.725  42.785  91.496  0.00  0.00    +0.166 HD
ATOM      5  CE2 TRP A   1      17.791  42.539  91.015  0.00  0.00    +0.056 A 
ATOM      6  CZ2 TRP A   1      17.925  41.228  90.487  0.00  0.00    +0.017 A 
ATOM      7  CH2 TRP A   1      19.179  40.854  90.066  0.00  0.00    +0.001 A 
ATOM      8  CZ3 TRP A   1      20.311  41.724  90.225  0.00  0.00    +0.000 A 
ATOM      9  CE3 TRP A   1      20.181  43.000  90.796  0.00  0.00    +0.001 A 
ATOM     10  CD2 TRP A   1      18.896  43.430  91.181  0.00  0.00    +0.013 A 
ENDROOT
BRANCH   1  11
ATOM     11  CB  TRP A   1      19.160  45.846  92.193  0.00  0.00    +0.053 C 
BRANCH  11  12
ATOM     12  CA  TRP A   1      20.166  45.591  93.308  0.00  0.00    +0.137 C 
BRANCH  12  13
ATOM     13  N   TRP A   1      19.522  45.219  94.574  0.00  0.00    -0.239 NA
ATOM     14  H   TRP A   1      18.487  45.260  94.662  0.00  0.00    +0.142 HD
ENDBRANCH  12  13
BRANCH  12  15
ATOM     15  C   TRP A   1      21.116  46.761  93.501  0.00  0.00    +0.224 C 
ATOM     16  O   TRP A   1      22.116  46.853  92.838  0.00  0.00    -0.287 OA
ENDBRANCH  12  15
ENDBRANCH  11  12
ENDBRANCH   1  11
TORSDOF 4
REMARK  Name = ../refined-set-2016/3qfy/3qfy_pocket.pdb
REMARK  180 active torsions:
REMARK  status: ('A' for Active; 'I' for Inactive)
REMARK    1  A    between atoms: _1  and  _3
REMARK    2  A    between atoms: _3  and  _4
REMARK    3  A    between atoms: _3  and  _6
REMARK    4  A    between atoms: _6  and  _7
REMARK    5  A    between atoms: _7  and  _8
REMARK    6  A    between atoms: _8  and  _9
REMARK    7  A    between atoms: _18  and  _20
REMARK    8  A    between atoms: _20  and  _21
REMARK    9  A    between atoms: _20  and  _23
REMARK   10  A    between atoms: _23  and  _24
REMARK   11  A    between atoms: _24  and  _25
REMARK   12  A    between atoms: _28  and  _30
REMARK   13  A    between atoms: _30  and  _31
REMARK   14  A    between atoms: _30  and  _33
REMARK   15  A    between atoms: _33  and  _34
REMARK   16  A    between atoms: _34  and  _35
REMARK   17  A    between atoms: _35  and  _36
REMARK   18  A    between atoms: _45  and  _47
REMARK   19  A    between atoms: _47  and  _48
REMARK   20  A    between atoms: _50  and  _52
REMARK   21  A    between atoms: _52  and  _53
REMARK   22  A    between atoms: _52  and  _55
REMARK   23  A    between atoms: _55  and  _56
REMARK   24  A    between atoms: _62  and  _64
REMARK   25  A    between atoms: _64  and  _65
REMARK   26  A    between atoms: _64  and  _67
REMARK   27  A    between atoms: _67  and  _68
REMARK   28  A    between atoms: _68  and  _69
REMARK   29  A    between atoms: _69  and  _70
REMARK   30  A    between atoms: _79  and  _81
REMARK   31  A    between atoms: _81  and  _82
REMARK   32  A    between atoms: _81  and  _84
REMARK   33  A    between atoms: _84  and  _85
REMARK   34  A    between atoms: _88  and  _90
REMARK   35  A    between atoms: _90  and  _91
REMARK   36  A    between atoms: _90  and  _93
REMARK   37  A    between atoms: _93  and  _94
REMARK   38  A    between atoms: _96  and  _98
REMARK   39  A    between atoms: _98  and  _99
REMARK   40  A    between atoms: _98  and  _101
REMARK   41  A    between atoms: _101  and  _102
REMARK   42  A    between atoms: _102  and  _103
REMARK   43  A    between atoms: _108  and  _110
REMARK   44  A    between atoms: _110  and  _111
REMARK   45  A    between atoms: _110  and  _113
REMARK   46  A    between atoms: _113  and  _114
REMARK   47  A    between atoms: _119  and  _121
REMARK   48  A    between atoms: _121  and  _122
REMARK   49  A    between atoms: _121  and  _124
REMARK   50  A    between atoms: _124  and  _125
REMARK   51  A    between atoms: _128  and  _130
REMARK   52  A    between atoms: _130  and  _131
REMARK   53  A    between atoms: _130  and  _133
REMARK   54  A    between atoms: _133  and  _134
REMARK   55  A    between atoms: _140  and  _142
REMARK   56  A    between atoms: _142  and  _143
REMARK   57  A    between atoms: _142  and  _145
REMARK   58  A    between atoms: _145  and  _146
REMARK   59  A    between atoms: _149  and  _151
REMARK   60  A    between atoms: _151  and  _152
REMARK   61  A    between atoms: _151  and  _154
REMARK   62  A    between atoms: _154  and  _155
REMARK   63  A    between atoms: _158  and  _160
REMARK   64  A    between atoms: _160  and  _161
REMARK   65  A    between atoms: _160  and  _163
REMARK   66  A    between atoms: _163  and  _164
REMARK   67  A    between atoms: _174  and  _176
REMARK   68  A    between atoms: _176  and  _177
REMARK   69  A    between atoms: _180  and  _182
REMARK   70  A    between atoms: _182  and  _183
REMARK   71  A    between atoms: _182  and  _185
REMARK   72  A    between atoms: _185  and  _186
REMARK   73  A    between atoms: _189  and  _191
REMARK   74  A    between atoms: _191  and  _192
REMARK   75  A    between atoms: _191  and  _194
REMARK   76  A    between atoms: _194  and  _195
REMARK   77  A    between atoms: _205  and  _207
REMARK   78  A    between atoms: _207  and  _208
REMARK   79  A    between atoms: _207  and  _210
REMARK   80  A    between atoms: _210  and  _211
REMARK   81  A    between atoms: _216  and  _218
REMARK   82  A    between atoms: _218  and  _219
REMARK   83  A    between atoms: _218  and  _221
REMARK   84  A    between atoms: _221  and  _222
REMARK   85  A    between atoms: _225  and  _227
REMARK   86  A    between atoms: _227  and  _228
REMARK   87  A    between atoms: _227  and  _230
REMARK   88  A    between atoms: _232  and  _234
REMARK   89  A    between atoms: _234  and  _235
REMARK   90  A    between atoms: _234  and  _237
REMARK   91  A    between atoms: _237  and  _238
REMARK   92  A    between atoms: _241  and  _243
REMARK   93  A    between atoms: _243  and  _244
REMARK   94  A    between atoms: _243  and  _246
REMARK   95  A    between atoms: _246  and  _247
REMARK   96  A    between atoms: _252  and  _254
REMARK   97  A    between atoms: _254  and  _255
REMARK   98  A    between atoms: _254  and  _257
REMARK   99  A    between atoms: _257  and  _258
REMARK  100  A    between atoms: _258  and  _259
REMARK  101  A    between atoms: _264  and  _266
REMARK  102  A    between atoms: _266  and  _267
REMARK  103  A    between atoms: _266  and  _269
REMARK  104  A    between atoms: _269  and  _270
REMARK  105  A    between atoms: _276  and  _278
REMARK  106  A    between atoms: _278  and  _279
REMARK  107  A    between atoms: _278  and  _281
REMARK  108  A    between atoms: _281  and  _282
REMARK  109  A    between atoms: _282  and  _283
REMARK  110  A    between atoms: _283  and  _284
REMARK  111  A    between atoms: _293  and  _295
REMARK  112  A    between atoms: _295  and  _296
REMARK  113  A    between atoms: _295  and  _298
REMARK  114  A    between atoms: _298  and  _299
REMARK  115  A    between atoms: _299  and  _300
REMARK  116  A    between atoms: _303  and  _305
REMARK  117  A    between atoms: _305  and  _306
REMARK  118  A    between atoms: _305  and  _308
REMARK  119  A    between atoms: _308  and  _309
REMARK  120  A    between atoms: _312  and  _314
REMARK  121  A    between atoms: _314  and  _315
REMARK  122  A    between atoms: _314  and  _317
REMARK  123  A    between atoms: _317  and  _318
REMARK  124  A    between atoms: _323  and  _324
REMARK  125  A    between atoms: _326  and  _328
REMARK  126  A    between atoms: _328  and  _329
REMARK  127  A    between atoms: _328  and  _331
REMARK  128  A    between atoms: _331  and  _332
REMARK  129  A    between atoms: _332  and  _333
REMARK  130  A    between atoms: _333  and  _334
REMARK  131  A    between atoms: _334  and  _335
REMARK  132  A    between atoms: _339  and  _341
REMARK  133  A    between atoms: _341  and  _342
REMARK  134  A    between atoms: _341  and  _344
REMARK  135  A    between atoms: _344  and  _345
REMARK  136  A    between atoms: _345  and  _346
REMARK  137  A    between atoms: _349  and  _351
REMARK  138  A    between atoms: _351  and  _352
REMARK  139  A    between atoms: _351  and  _354
REMARK  140  A    between atoms: _354  and  _355
REMARK  141  A    between atoms: _361  and  _363
REMARK  142  A    between atoms: _363  and  _364
REMARK  143  A    between atoms: _363  and  _366
REMARK  144  A    between atoms: _366  and  _367
REMARK  145  A    between atoms: _372  and  _374
REMARK  146  A    between atoms: _374  and  _375
REMARK  147  A    between atoms: _374  and  _377
REMARK  148  A    between atoms: _377  and  _378
REMARK  149  A    between atoms: _383  and  _385
REMARK  150  A    between atoms: _385  and  _386
REMARK  151  A    between atoms: _385  and  _388
REMARK  152  A    between atoms: _388  and  _389
REMARK  153  A    between atoms: _399  and  _401
REMARK  154  A    between atoms: _401  and  _402
REMARK  155  A    between atoms: _401  and  _404
REMARK  156  A    between atoms: _404  and  _405
REMARK  157  A    between atoms: _405  and  _406
REMARK  158  A    between atoms: _411  and  _413
REMARK  159  A    between atoms: _413  and  _414
REMARK  160  A    between atoms: _413  and  _416
REMARK  161  A    between atoms: _416  and  _417
REMARK  162  A    between atoms: _422  and  _424
REMARK  163  A    between atoms: _424  and  _425
REMARK  164  A    between atoms: _424  and  _427
REMARK  165  A    between atoms: _427  and  _428
REMARK  166  A    between atoms: _431  and  _433
REMARK  167  A    between atoms: _433  and  _434
REMARK  168  A    between atoms: _433  and  _436
REMARK  169  A    between atoms: _436  and  _437
REMARK  170  A    between atoms: _440  and  _442
REMARK  171  A    between atoms: _442  and  _443
REMARK  172  A    between atoms: _445  and  _447
REMARK  173  A    between atoms: _447  and  _448
REMARK  174  A    between atoms: _447  and  _450
REMARK  175  A    between atoms: _450  and  _451
REMARK  176  A    between atoms: _461  and  _463
REMARK  177  A    between atoms: _463  and  _464
REMARK  178  A    between atoms: _463  and  _466
REMARK  179  A    between atoms: _466  and  _467
REMARK  180  A    between atoms: _467  and  _468
REMARK                            x       y       z     vdW  Elec       q    Type
REMARK                         _______ _______ _______ _____ _____    ______ ____
ROOT
ATOM      1  CA  ASN A   4       9.411  38.877  88.250  0.00  0.00    +0.158 C 
ENDROOT
BRANCH   1   3
ATOM      2  C   TRP A   3      11.376  40.145  88.856  0.00  0.00    +0.241 C 
ATOM      3  N   ASN A   4      10.559  39.131  89.098  0.00  0.00    -0.297 N 
ATOM      4  H   ASN A   4      10.744  38.507  89.909  0.00  0.00    +0.150 HD
ATOM      5  O   TRP A   3      11.233  40.909  87.867  0.00  0.00    -0.273 OA
BRANCH   2   6
ATOM      6  CA  TRP A   3      12.503  40.335  89.908  0.00  0.00    +0.153 C 
BRANCH   6   8
ATOM      7  C   ASP A   2      10.871  40.564  91.730  0.00  0.00    +0.241 C 
ATOM      8  N   TRP A   3      12.034  40.055  91.281  0.00  0.00    -0.297 N 
ATOM      9  H   TRP A   3      12.609  39.457  91.908  0.00  0.00    +0.150 HD
ATOM     10  O   ASP A   2      10.175  41.343  91.057  0.00  0.00    -0.273 OA
BRANCH   7  11
ATOM     11  CA  ASP A   2      10.380  40.169  93.131  0.00  0.00    +0.160 C 
BRANCH  11  14
ATOM     12  C   ALA A   1       8.201  41.185  93.573  0.00  0.00    +0.238 C 
ATOM     13  O   ALA A   1       8.705  42.119  94.250  0.00  0.00    -0.274 OA
ATOM     14  N   ASP A   2       8.902  40.156  93.094  0.00  0.00    -0.297 N 
ATOM     15  H   ASP A   2       8.404  39.337  92.691  0.00  0.00    +0.150 HD
BRANCH  12  16
ATOM     16  CA  ALA A   1       6.698  41.197  93.297  0.00  0.00    +0.145 C 
ATOM     17  CB  ALA A   1       6.436  41.625  91.865  0.00  0.00    +0.028 C 
BRANCH  16  18
ATOM     18  N   ALA A   1       6.119  42.164  94.247  0.00  0.00    -0.238 NA
ATOM     19  H   ALA A   1       6.776  42.705  94.845  0.00  0.00    +0.142 HD
ENDBRANCH  16  18
ENDBRANCH  12  16
ENDBRANCH  11  14
BRANCH  11  20
ATOM     20  CB  ASP A   2      10.998  38.841  93.646  0.00  0.00    +0.143 C 
BRANCH  20  21
ATOM     21  CG  ASP A   2      10.483  37.627  92.918  0.00  0.00    +0.367 C 
ATOM     22  OD2 ASP A   2      10.519  36.513  93.492  0.00  0.00    -0.246 OA
ATOM     23  OD1 ASP A   2      10.046  37.755  91.748  0.00  0.00    -0.246 OA
ENDBRANCH  20  21
ENDBRANCH  11  20
ENDBRANCH   7  11
ENDBRANCH   6   8
BRANCH   6  24
ATOM     24  CB  TRP A   3      13.720  39.477  89.545  0.00  0.00    +0.057 C 
BRANCH  24  25
ATOM     25  CG  TRP A   3      14.125  39.643  88.087  0.00  0.00    -0.002 A 
ATOM     26  CD1 TRP A   3      15.008  40.543  87.582  0.00  0.00    +0.068 A 
ATOM     27  NE1 TRP A   3      15.093  40.396  86.190  0.00  0.00    -0.352 N 
ATOM     28  CE2 TRP A   3      14.245  39.391  85.803  0.00  0.00    +0.056 A 
ATOM     29  CZ2 TRP A   3      13.932  38.895  84.500  0.00  0.00    +0.017 A 
ATOM     30  CH2 TRP A   3      12.996  37.869  84.412  0.00  0.00    +0.001 A 
ATOM     31  CZ3 TRP A   3      12.350  37.371  85.543  0.00  0.00    +0.000 A 
ATOM     32  CE3 TRP A   3      12.651  37.867  86.846  0.00  0.00    +0.001 A 
ATOM     33  HE1 TRP A   3      15.699  40.956  85.557  0.00  0.00    +0.166 HD
ATOM     34  CD2 TRP A   3      13.613  38.897  86.975  0.00  0.00    +0.013 A 
ENDBRANCH  24  25
ENDBRANCH   6  24
ENDBRANCH   2   6
ENDBRANCH   1   3
BRANCH   1  35
ATOM     35  C   ASN A   4       8.230  39.767  88.632  0.00  0.00    +0.241 C 
ATOM     36  O   ASN A   4       7.518  39.511  89.633  0.00  0.00    -0.273 OA
ATOM     37  N   ASP A   5       8.058  40.837  87.838  0.00  0.00    -0.297 N 
ATOM     38  H   ASP A   5       8.713  40.953  87.039  0.00  0.00    +0.150 HD
BRANCH  37  39
ATOM     39  CA  ASP A   5       7.018  41.851  88.013  0.00  0.00    +0.160 C 
BRANCH  39  40
ATOM     40  C   ASP A   5       5.616  41.240  88.070  0.00  0.00    +0.241 C 
ATOM     41  O   ASP A   5       4.737  41.824  88.644  0.00  0.00    -0.273 OA
ATOM     42  N   CYS A   6       5.403  40.107  87.417  0.00  0.00    -0.296 N 
ATOM     43  H   CYS A   6       6.208  39.648  86.945  0.00  0.00    +0.150 HD
BRANCH  42  44
ATOM     44  CA  CYS A   6       4.093  39.475  87.330  0.00  0.00    +0.160 C 
BRANCH  44  45
ATOM     45  C   CYS A   6       3.828  38.402  88.392  0.00  0.00    +0.242 C 
ATOM     46  N   LEU A   7       4.776  38.158  89.307  0.00  0.00    -0.297 N 
ATOM     47  H   LEU A   7       5.704  38.621  89.226  0.00  0.00    +0.150 HD
ATOM     48  O   CYS A   6       2.782  37.785  88.338  0.00  0.00    -0.273 OA
BRANCH  46  49
ATOM     49  CA  LEU A   7       4.513  37.239  90.426  0.00  0.00    +0.149 C 
BRANCH  49  50
ATOM     50  C   LEU A   7       4.018  38.073  91.568  0.00  0.00    +0.241 C 
ATOM     51  O   LEU A   7       4.811  38.493  92.410  0.00  0.00    -0.273 OA
ATOM     52  N   ASN A   8       2.712  38.342  91.561  0.00  0.00    -0.298 N 
ATOM     53  H   ASN A   8       2.119  37.909  90.824  0.00  0.00    +0.150 HD
BRANCH  52  54
ATOM     54  CA  ASN A   8       2.078  39.216  92.541  0.00  0.00    +0.146 C 
BRANCH  54  55
ATOM     55  C   ASN A   8       1.249  38.334  93.501  0.00  0.00    +0.227 C 
ATOM     56  O   ASN A   8       0.111  37.990  93.196  0.00  0.00    -0.286 OA
ENDBRANCH  54  55
BRANCH  54  57
ATOM     57  CB  ASN A   8       1.219  40.332  91.838  0.00  0.00    +0.112 C 
BRANCH  57  58
ATOM     58  CG  ASN A   8       1.927  40.933  90.647  0.00  0.00    +0.222 C 
ATOM     59  ND2 ASN A   8       2.989  41.679  90.914  0.00  0.00    -0.329 N 
ATOM     60 HD21 ASN A   8       3.249  41.879  91.901  0.00  0.00    +0.145 HD
ATOM     61 HD22 ASN A   8       3.562  42.065  90.137  0.00  0.00    +0.145 HD
ATOM     62  OD1 ASN A   8       1.578  40.668  89.492  0.00  0.00    -0.275 OA
ENDBRANCH  57  58
ENDBRANCH  54  57
ENDBRANCH  52  54
ENDBRANCH  49  50
BRANCH  49  63
ATOM     63  CB  LEU A   7       5.773  36.462  90.848  0.00  0.00    +0.029 C 
BRANCH  63  64
ATOM     64  CG  LEU A   7       5.569  35.258  91.815  0.00  0.00    +0.002 C 
ATOM     65  CD2 LEU A   7       6.907  34.529  92.000  0.00  0.00    +0.000 C 
ATOM     66  CD1 LEU A   7       4.519  34.259  91.261  0.00  0.00    +0.000 C 
ENDBRANCH  63  64
ENDBRANCH  49  63
ENDBRANCH  46  49
ENDBRANCH  44  45
BRANCH  44  67
ATOM     67  CB  CYS A   6       3.881  38.846  85.958  0.00  0.00    +0.098 C 
ATOM     68  SG  CYS A   6       3.960  40.087  84.653  0.00  0.00    -0.080 S 
ENDBRANCH  44  67
ENDBRANCH  42  44
ENDBRANCH  39  40
BRANCH  39  69
ATOM     69  CB  ASP A   5       7.032  42.842  86.820  0.00  0.00    +0.143 C 
BRANCH  69  70
ATOM     70  CG  ASP A   5       8.095  43.961  86.950  0.00  0.00    +0.367 C 
ATOM     71  OD2 ASP A   5       8.615  44.218  88.078  0.00  0.00    -0.246 OA
ATOM     72  OD1 ASP A   5       8.421  44.599  85.892  0.00  0.00    -0.246 OA
ENDBRANCH  69  70
ENDBRANCH  39  69
ENDBRANCH  37  39
ENDBRANCH   1  35
BRANCH   1  73
ATOM     73  CB  ASN A   4       9.073  37.423  88.299  0.00  0.00    +0.114 C 
BRANCH  73  74
ATOM     74  CG  ASN A   4       8.125  37.016  87.210  0.00  0.00    +0.222 C 
ATOM     75  OD1 ASN A   4       7.234  37.780  86.823  0.00  0.00    -0.275 OA
ATOM     76  ND2 ASN A   4       8.280  35.780  86.729  0.00  0.00    -0.329 N 
ATOM     77 HD21 ASN A   4       9.046  35.175  87.087  0.00  0.00    +0.145 HD
ATOM     78 HD22 ASN A   4       7.635  35.423  85.996  0.00  0.00    +0.145 HD
ENDBRANCH  73  74
ENDBRANCH   1  73
TORSDOF 29
REMARK  Name = ../refined-set-2016/3qfy/3qfy_pocket.pdb
REMARK  180 active torsions:
REMARK  status: ('A' for Active; 'I' for Inactive)
REMARK    1  A    between atoms: _1  and  _3
REMARK    2  A    between atoms: _3  and  _4
REMARK    3  A    between atoms: _3  and  _6
REMARK    4  A    between atoms: _6  and  _7
REMARK    5  A    between atoms: _7  and  _8
REMARK    6  A    between atoms: _8  and  _9
REMARK    7  A    between atoms: _18  and  _20
REMARK    8  A    between atoms: _20  and  _21
REMARK    9  A    between atoms: _20  and  _23
REMARK   10  A    between atoms: _23  and  _24
REMARK   11  A    between atoms: _24  and  _25
REMARK   12  A    between atoms: _28  and  _30
REMARK   13  A    between atoms: _30  and  _31
REMARK   14  A    between atoms: _30  and  _33
REMARK   15  A    between atoms: _33  and  _34
REMARK   16  A    between atoms: _34  and  _35
REMARK   17  A    between atoms: _35  and  _36
REMARK   18  A    between atoms: _45  and  _47
REMARK   19  A    between atoms: _47  and  _48
REMARK   20  A    between atoms: _50  and  _52
REMARK   21  A    between atoms: _52  and  _53
REMARK   22  A    between atoms: _52  and  _55
REMARK   23  A    between atoms: _55  and  _56
REMARK   24  A    between atoms: _62  and  _64
REMARK   25  A    between atoms: _64  and  _65
REMARK   26  A    between atoms: _64  and  _67
REMARK   27  A    between atoms: _67  and  _68
REMARK   28  A    between atoms: _68  and  _69
REMARK   29  A    between atoms: _69  and  _70
REMARK   30  A    between atoms: _79  and  _81
REMARK   31  A    between atoms: _81  and  _82
REMARK   32  A    between atoms: _81  and  _84
REMARK   33  A    between atoms: _84  and  _85
REMARK   34  A    between atoms: _88  and  _90
REMARK   35  A    between atoms: _90  and  _91
REMARK   36  A    between atoms: _90  and  _93
REMARK   37  A    between atoms: _93  and  _94
REMARK   38  A    between atoms: _96  and  _98
REMARK   39  A    between atoms: _98  and  _99
REMARK   40  A    between atoms: _98  and  _101
REMARK   41  A    between atoms: _101  and  _102
REMARK   42  A    between atoms: _102  and  _103
REMARK   43  A    between atoms: _108  and  _110
REMARK   44  A    between atoms: _110  and  _111
REMARK   45  A    between atoms: _110  and  _113
REMARK   46  A    between atoms: _113  and  _114
REMARK   47  A    between atoms: _119  and  _121
REMARK   48  A    between atoms: _121  and  _122
REMARK   49  A    between atoms: _121  and  _124
REMARK   50  A    between atoms: _124  and  _125
REMARK   51  A    between atoms: _128  and  _130
REMARK   52  A    between atoms: _130  and  _131
REMARK   53  A    between atoms: _130  and  _133
REMARK   54  A    between atoms: _133  and  _134
REMARK   55  A    between atoms: _140  and  _142
REMARK   56  A    between atoms: _142  and  _143
REMARK   57  A    between atoms: _142  and  _145
REMARK   58  A    between atoms: _145  and  _146
REMARK   59  A    between atoms: _149  and  _151
REMARK   60  A    between atoms: _151  and  _152
REMARK   61  A    between atoms: _151  and  _154
REMARK   62  A    between atoms: _154  and  _155
REMARK   63  A    between atoms: _158  and  _160
REMARK   64  A    between atoms: _160  and  _161
REMARK   65  A    between atoms: _160  and  _163
REMARK   66  A    between atoms: _163  and  _164
REMARK   67  A    between atoms: _174  and  _176
REMARK   68  A    between atoms: _176  and  _177
REMARK   69  A    between atoms: _180  and  _182
REMARK   70  A    between atoms: _182  and  _183
REMARK   71  A    between atoms: _182  and  _185
REMARK   72  A    between atoms: _185  and  _186
REMARK   73  A    between atoms: _189  and  _191
REMARK   74  A    between atoms: _191  and  _192
REMARK   75  A    between atoms: _191  and  _194
REMARK   76  A    between atoms: _194  and  _195
REMARK   77  A    between atoms: _205  and  _207
REMARK   78  A    between atoms: _207  and  _208
REMARK   79  A    between atoms: _207  and  _210
REMARK   80  A    between atoms: _210  and  _211
REMARK   81  A    between atoms: _216  and  _218
REMARK   82  A    between atoms: _218  and  _219
REMARK   83  A    between atoms: _218  and  _221
REMARK   84  A    between atoms: _221  and  _222
REMARK   85  A    between atoms: _225  and  _227
REMARK   86  A    between atoms: _227  and  _228
REMARK   87  A    between atoms: _227  and  _230
REMARK   88  A    between atoms: _232  and  _234
REMARK   89  A    between atoms: _234  and  _235
REMARK   90  A    between atoms: _234  and  _237
REMARK   91  A    between atoms: _237  and  _238
REMARK   92  A    between atoms: _241  and  _243
REMARK   93  A    between atoms: _243  and  _244
REMARK   94  A    between atoms: _243  and  _246
REMARK   95  A    between atoms: _246  and  _247
REMARK   96  A    between atoms: _252  and  _254
REMARK   97  A    between atoms: _254  and  _255
REMARK   98  A    between atoms: _254  and  _257
REMARK   99  A    between atoms: _257  and  _258
REMARK  100  A    between atoms: _258  and  _259
REMARK  101  A    between atoms: _264  and  _266
REMARK  102  A    between atoms: _266  and  _267
REMARK  103  A    between atoms: _266  and  _269
REMARK  104  A    between atoms: _269  and  _270
REMARK  105  A    between atoms: _276  and  _278
REMARK  106  A    between atoms: _278  and  _279
REMARK  107  A    between atoms: _278  and  _281
REMARK  108  A    between atoms: _281  and  _282
REMARK  109  A    between atoms: _282  and  _283
REMARK  110  A    between atoms: _283  and  _284
REMARK  111  A    between atoms: _293  and  _295
REMARK  112  A    between atoms: _295  and  _296
REMARK  113  A    between atoms: _295  and  _298
REMARK  114  A    between atoms: _298  and  _299
REMARK  115  A    between atoms: _299  and  _300
REMARK  116  A    between atoms: _303  and  _305
REMARK  117  A    between atoms: _305  and  _306
REMARK  118  A    between atoms: _305  and  _308
REMARK  119  A    between atoms: _308  and  _309
REMARK  120  A    between atoms: _312  and  _314
REMARK  121  A    between atoms: _314  and  _315
REMARK  122  A    between atoms: _314  and  _317
REMARK  123  A    between atoms: _317  and  _318
REMARK  124  A    between atoms: _323  and  _324
REMARK  125  A    between atoms: _326  and  _328
REMARK  126  A    between atoms: _328  and  _329
REMARK  127  A    between atoms: _328  and  _331
REMARK  128  A    between atoms: _331  and  _332
REMARK  129  A    between atoms: _332  and  _333
REMARK  130  A    between atoms: _333  and  _334
REMARK  131  A    between atoms: _334  and  _335
REMARK  132  A    between atoms: _339  and  _341
REMARK  133  A    between atoms: _341  and  _342
REMARK  134  A    between atoms: _341  and  _344
REMARK  135  A    between atoms: _344  and  _345
REMARK  136  A    between atoms: _345  and  _346
REMARK  137  A    between atoms: _349  and  _351
REMARK  138  A    between atoms: _351  and  _352
REMARK  139  A    between atoms: _351  and  _354
REMARK  140  A    between atoms: _354  and  _355
REMARK  141  A    between atoms: _361  and  _363
REMARK  142  A    between atoms: _363  and  _364
REMARK  143  A    between atoms: _363  and  _366
REMARK  144  A    between atoms: _366  and  _367
REMARK  145  A    between atoms: _372  and  _374
REMARK  146  A    between atoms: _374  and  _375
REMARK  147  A    between atoms: _374  and  _377
REMARK  148  A    between atoms: _377  and  _378
REMARK  149  A    between atoms: _383  and  _385
REMARK  150  A    between atoms: _385  and  _386
REMARK  151  A    between atoms: _385  and  _388
REMARK  152  A    between atoms: _388  and  _389
REMARK  153  A    between atoms: _399  and  _401
REMARK  154  A    between atoms: _401  and  _402
REMARK  155  A    between atoms: _401  and  _404
REMARK  156  A    between atoms: _404  and  _405
REMARK  157  A    between atoms: _405  and  _406
REMARK  158  A    between atoms: _411  and  _413
REMARK  159  A    between atoms: _413  and  _414
REMARK  160  A    between atoms: _413  and  _416
REMARK  161  A    between atoms: _416  and  _417
REMARK  162  A    between atoms: _422  and  _424
REMARK  163  A    between atoms: _424  and  _425
REMARK  164  A    between atoms: _424  and  _427
REMARK  165  A    between atoms: _427  and  _428
REMARK  166  A    between atoms: _431  and  _433
REMARK  167  A    between atoms: _433  and  _434
REMARK  168  A    between atoms: _433  and  _436
REMARK  169  A    between atoms: _436  and  _437
REMARK  170  A    between atoms: _440  and  _442
REMARK  171  A    between atoms: _442  and  _443
REMARK  172  A    between atoms: _445  and  _447
REMARK  173  A    between atoms: _447  and  _448
REMARK  174  A    between atoms: _447  and  _450
REMARK  175  A    between atoms: _450  and  _451
REMARK  176  A    between atoms: _461  and  _463
REMARK  177  A    between atoms: _463  and  _464
REMARK  178  A    between atoms: _463  and  _466
REMARK  179  A    between atoms: _466  and  _467
REMARK  180  A    between atoms: _467  and  _468
REMARK                            x       y       z     vdW  Elec       q    Type
REMARK                         _______ _______ _______ _____ _____    ______ ____
ROOT
ATOM      1  CB  GLN A   1       2.490  47.431  87.642  0.00  0.00    +0.035 C 
ENDROOT
BRANCH   1   2
ATOM      2  CA  GLN A   1       1.646  46.861  88.808  0.00  0.00    +0.134 C 
BRANCH   2   3
ATOM      3  N   GLN A   1       0.453  46.144  88.318  0.00  0.00    -0.239 NA
ATOM      4  H   GLN A   1       0.150  46.269  87.331  0.00  0.00    +0.142 HD
ENDBRANCH   2   3
BRANCH   2   5
ATOM      5  C   GLN A   1       1.332  47.962  89.837  0.00  0.00    +0.224 C 
ATOM      6  O   GLN A   1       2.132  48.205  90.732  0.00  0.00    -0.287 OA
ENDBRANCH   2   5
ENDBRANCH   1   2
BRANCH   1   7
ATOM      7  CG  GLN A   1       2.902  46.371  86.585  0.00  0.00    +0.087 C 
BRANCH   7   8
ATOM      8  CD  GLN A   1       3.688  45.158  87.197  0.00  0.00    +0.219 C 
ATOM      9  OE1 GLN A   1       4.708  45.331  87.802  0.00  0.00    -0.275 OA
ATOM     10  NE2 GLN A   1       3.194  43.959  86.993  0.00  0.00    -0.329 N 
ATOM     11 HE21 GLN A   1       3.690  43.123  87.361  0.00  0.00    +0.145 HD
ATOM     12 HE22 GLN A   1       2.306  43.846  86.463  0.00  0.00    +0.145 HD
ENDBRANCH   7   8
ENDBRANCH   1   7
TORSDOF 5
REMARK  Name = ../refined-set-2016/3qfy/3qfy_pocket.pdb
REMARK  180 active torsions:
REMARK  status: ('A' for Active; 'I' for Inactive)
REMARK    1  A    between atoms: _1  and  _3
REMARK    2  A    between atoms: _3  and  _4
REMARK    3  A    between atoms: _3  and  _6
REMARK    4  A    between atoms: _6  and  _7
REMARK    5  A    between atoms: _7  and  _8
REMARK    6  A    between atoms: _8  and  _9
REMARK    7  A    between atoms: _18  and  _20
REMARK    8  A    between atoms: _20  and  _21
REMARK    9  A    between atoms: _20  and  _23
REMARK   10  A    between atoms: _23  and  _24
REMARK   11  A    between atoms: _24  and  _25
REMARK   12  A    between atoms: _28  and  _30
REMARK   13  A    between atoms: _30  and  _31
REMARK   14  A    between atoms: _30  and  _33
REMARK   15  A    between atoms: _33  and  _34
REMARK   16  A    between atoms: _34  and  _35
REMARK   17  A    between atoms: _35  and  _36
REMARK   18  A    between atoms: _45  and  _47
REMARK   19  A    between atoms: _47  and  _48
REMARK   20  A    between atoms: _50  and  _52
REMARK   21  A    between atoms: _52  and  _53
REMARK   22  A    between atoms: _52  and  _55
REMARK   23  A    between atoms: _55  and  _56
REMARK   24  A    between atoms: _62  and  _64
REMARK   25  A    between atoms: _64  and  _65
REMARK   26  A    between atoms: _64  and  _67
REMARK   27  A    between atoms: _67  and  _68
REMARK   28  A    between atoms: _68  and  _69
REMARK   29  A    between atoms: _69  and  _70
REMARK   30  A    between atoms: _79  and  _81
REMARK   31  A    between atoms: _81  and  _82
REMARK   32  A    between atoms: _81  and  _84
REMARK   33  A    between atoms: _84  and  _85
REMARK   34  A    between atoms: _88  and  _90
REMARK   35  A    between atoms: _90  and  _91
REMARK   36  A    between atoms: _90  and  _93
REMARK   37  A    between atoms: _93  and  _94
REMARK   38  A    between atoms: _96  and  _98
REMARK   39  A    between atoms: _98  and  _99
REMARK   40  A    between atoms: _98  and  _101
REMARK   41  A    between atoms: _101  and  _102
REMARK   42  A    between atoms: _102  and  _103
REMARK   43  A    between atoms: _108  and  _110
REMARK   44  A    between atoms: _110  and  _111
REMARK   45  A    between atoms: _110  and  _113
REMARK   46  A    between atoms: _113  and  _114
REMARK   47  A    between atoms: _119  and  _121
REMARK   48  A    between atoms: _121  and  _122
REMARK   49  A    between atoms: _121  and  _124
REMARK   50  A    between atoms: _124  and  _125
REMARK   51  A    between atoms: _128  and  _130
REMARK   52  A    between atoms: _130  and  _131
REMARK   53  A    between atoms: _130  and  _133
REMARK   54  A    between atoms: _133  and  _134
REMARK   55  A    between atoms: _140  and  _142
REMARK   56  A    between atoms: _142  and  _143
REMARK   57  A    between atoms: _142  and  _145
REMARK   58  A    between atoms: _145  and  _146
REMARK   59  A    between atoms: _149  and  _151
REMARK   60  A    between atoms: _151  and  _152
REMARK   61  A    between atoms: _151  and  _154
REMARK   62  A    between atoms: _154  and  _155
REMARK   63  A    between atoms: _158  and  _160
REMARK   64  A    between atoms: _160  and  _161
REMARK   65  A    between atoms: _160  and  _163
REMARK   66  A    between atoms: _163  and  _164
REMARK   67  A    between atoms: _174  and  _176
REMARK   68  A    between atoms: _176  and  _177
REMARK   69  A    between atoms: _180  and  _182
REMARK   70  A    between atoms: _182  and  _183
REMARK   71  A    between atoms: _182  and  _185
REMARK   72  A    between atoms: _185  and  _186
REMARK   73  A    between atoms: _189  and  _191
REMARK   74  A    between atoms: _191  and  _192
REMARK   75  A    between atoms: _191  and  _194
REMARK   76  A    between atoms: _194  and  _195
REMARK   77  A    between atoms: _205  and  _207
REMARK   78  A    between atoms: _207  and  _208
REMARK   79  A    between atoms: _207  and  _210
REMARK   80  A    between atoms: _210  and  _211
REMARK   81  A    between atoms: _216  and  _218
REMARK   82  A    between atoms: _218  and  _219
REMARK   83  A    between atoms: _218  and  _221
REMARK   84  A    between atoms: _221  and  _222
REMARK   85  A    between atoms: _225  and  _227
REMARK   86  A    between atoms: _227  and  _228
REMARK   87  A    between atoms: _227  and  _230
REMARK   88  A    between atoms: _232  and  _234
REMARK   89  A    between atoms: _234  and  _235
REMARK   90  A    between atoms: _234  and  _237
REMARK   91  A    between atoms: _237  and  _238
REMARK   92  A    between atoms: _241  and  _243
REMARK   93  A    between atoms: _243  and  _244
REMARK   94  A    between atoms: _243  and  _246
REMARK   95  A    between atoms: _246  and  _247
REMARK   96  A    between atoms: _252  and  _254
REMARK   97  A    between atoms: _254  and  _255
REMARK   98  A    between atoms: _254  and  _257
REMARK   99  A    between atoms: _257  and  _258
REMARK  100  A    between atoms: _258  and  _259
REMARK  101  A    between atoms: _264  and  _266
REMARK  102  A    between atoms: _266  and  _267
REMARK  103  A    between atoms: _266  and  _269
REMARK  104  A    between atoms: _269  and  _270
REMARK  105  A    between atoms: _276  and  _278
REMARK  106  A    between atoms: _278  and  _279
REMARK  107  A    between atoms: _278  and  _281
REMARK  108  A    between atoms: _281  and  _282
REMARK  109  A    between atoms: _282  and  _283
REMARK  110  A    between atoms: _283  and  _284
REMARK  111  A    between atoms: _293  and  _295
REMARK  112  A    between atoms: _295  and  _296
REMARK  113  A    between atoms: _295  and  _298
REMARK  114  A    between atoms: _298  and  _299
REMARK  115  A    between atoms: _299  and  _300
REMARK  116  A    between atoms: _303  and  _305
REMARK  117  A    between atoms: _305  and  _306
REMARK  118  A    between atoms: _305  and  _308
REMARK  119  A    between atoms: _308  and  _309
REMARK  120  A    between atoms: _312  and  _314
REMARK  121  A    between atoms: _314  and  _315
REMARK  122  A    between atoms: _314  and  _317
REMARK  123  A    between atoms: _317  and  _318
REMARK  124  A    between atoms: _323  and  _324
REMARK  125  A    between atoms: _326  and  _328
REMARK  126  A    between atoms: _328  and  _329
REMARK  127  A    between atoms: _328  and  _331
REMARK  128  A    between atoms: _331  and  _332
REMARK  129  A    between atoms: _332  and  _333
REMARK  130  A    between atoms: _333  and  _334
REMARK  131  A    between atoms: _334  and  _335
REMARK  132  A    between atoms: _339  and  _341
REMARK  133  A    between atoms: _341  and  _342
REMARK  134  A    between atoms: _341  and  _344
REMARK  135  A    between atoms: _344  and  _345
REMARK  136  A    between atoms: _345  and  _346
REMARK  137  A    between atoms: _349  and  _351
REMARK  138  A    between atoms: _351  and  _352
REMARK  139  A    between atoms: _351  and  _354
REMARK  140  A    between atoms: _354  and  _355
REMARK  141  A    between atoms: _361  and  _363
REMARK  142  A    between atoms: _363  and  _364
REMARK  143  A    between atoms: _363  and  _366
REMARK  144  A    between atoms: _366  and  _367
REMARK  145  A    between atoms: _372  and  _374
REMARK  146  A    between atoms: _374  and  _375
REMARK  147  A    between atoms: _374  and  _377
REMARK  148  A    between atoms: _377  and  _378
REMARK  149  A    between atoms: _383  and  _385
REMARK  150  A    between atoms: _385  and  _386
REMARK  151  A    between atoms: _385  and  _388
REMARK  152  A    between atoms: _388  and  _389
REMARK  153  A    between atoms: _399  and  _401
REMARK  154  A    between atoms: _401  and  _402
REMARK  155  A    between atoms: _401  and  _404
REMARK  156  A    between atoms: _404  and  _405
REMARK  157  A    between atoms: _405  and  _406
REMARK  158  A    between atoms: _411  and  _413
REMARK  159  A    between atoms: _413  and  _414
REMARK  160  A    between atoms: _413  and  _416
REMARK  161  A    between atoms: _416  and  _417
REMARK  162  A    between atoms: _422  and  _424
REMARK  163  A    between atoms: _424  and  _425
REMARK  164  A    between atoms: _424  and  _427
REMARK  165  A    between atoms: _427  and  _428
REMARK  166  A    between atoms: _431  and  _433
REMARK  167  A    between atoms: _433  and  _434
REMARK  168  A    between atoms: _433  and  _436
REMARK  169  A    between atoms: _436  and  _437
REMARK  170  A    between atoms: _440  and  _442
REMARK  171  A    between atoms: _442  and  _443
REMARK  172  A    between atoms: _445  and  _447
REMARK  173  A    between atoms: _447  and  _448
REMARK  174  A    between atoms: _447  and  _450
REMARK  175  A    between atoms: _450  and  _451
REMARK  176  A    between atoms: _461  and  _463
REMARK  177  A    between atoms: _463  and  _464
REMARK  178  A    between atoms: _463  and  _466
REMARK  179  A    between atoms: _466  and  _467
REMARK  180  A    between atoms: _467  and  _468
REMARK                            x       y       z     vdW  Elec       q    Type
REMARK                         _______ _______ _______ _____ _____    ______ ____
ROOT
ATOM      1  CB  PHE A   1      13.923  34.971  93.035  0.00  0.00    +0.051 C 
ENDROOT
BRANCH   1   2
ATOM      2  CG  PHE A   1      14.819  35.992  92.389  0.00  0.00    -0.020 A 
ATOM      3  CD2 PHE A   1      14.818  37.335  92.847  0.00  0.00    -0.004 A 
ATOM      4  CE2 PHE A   1      15.693  38.281  92.287  0.00  0.00    -0.000 A 
ATOM      5  CZ  PHE A   1      16.605  37.882  91.283  0.00  0.00    -0.000 A 
ATOM      6  CE1 PHE A   1      16.647  36.533  90.851  0.00  0.00    -0.000 A 
ATOM      7  CD1 PHE A   1      15.774  35.591  91.433  0.00  0.00    -0.004 A 
ENDBRANCH   1   2
BRANCH   1   8
ATOM      8  CA  PHE A   1      14.610  34.300  94.207  0.00  0.00    +0.137 C 
BRANCH   8   9
ATOM      9  N   PHE A   1      13.729  33.400  94.929  0.00  0.00    -0.239 NA
ATOM     10  H   PHE A   1      12.739  33.286  94.632  0.00  0.00    +0.142 HD
ENDBRANCH   8   9
BRANCH   8  11
ATOM     11  C   PHE A   1      15.297  35.388  95.075  0.00  0.00    +0.224 C 
ATOM     12  O   PHE A   1      16.523  35.513  95.043  0.00  0.00    -0.287 OA
ENDBRANCH   8  11
ENDBRANCH   1   8
TORSDOF 4
REMARK  Name = ../refined-set-2016/3qfy/3qfy_pocket.pdb
REMARK  180 active torsions:
REMARK  status: ('A' for Active; 'I' for Inactive)
REMARK    1  A    between atoms: _1  and  _3
REMARK    2  A    between atoms: _3  and  _4
REMARK    3  A    between atoms: _3  and  _6
REMARK    4  A    between atoms: _6  and  _7
REMARK    5  A    between atoms: _7  and  _8
REMARK    6  A    between atoms: _8  and  _9
REMARK    7  A    between atoms: _18  and  _20
REMARK    8  A    between atoms: _20  and  _21
REMARK    9  A    between atoms: _20  and  _23
REMARK   10  A    between atoms: _23  and  _24
REMARK   11  A    between atoms: _24  and  _25
REMARK   12  A    between atoms: _28  and  _30
REMARK   13  A    between atoms: _30  and  _31
REMARK   14  A    between atoms: _30  and  _33
REMARK   15  A    between atoms: _33  and  _34
REMARK   16  A    between atoms: _34  and  _35
REMARK   17  A    between atoms: _35  and  _36
REMARK   18  A    between atoms: _45  and  _47
REMARK   19  A    between atoms: _47  and  _48
REMARK   20  A    between atoms: _50  and  _52
REMARK   21  A    between atoms: _52  and  _53
REMARK   22  A    between atoms: _52  and  _55
REMARK   23  A    between atoms: _55  and  _56
REMARK   24  A    between atoms: _62  and  _64
REMARK   25  A    between atoms: _64  and  _65
REMARK   26  A    between atoms: _64  and  _67
REMARK   27  A    between atoms: _67  and  _68
REMARK   28  A    between atoms: _68  and  _69
REMARK   29  A    between atoms: _69  and  _70
REMARK   30  A    between atoms: _79  and  _81
REMARK   31  A    between atoms: _81  and  _82
REMARK   32  A    between atoms: _81  and  _84
REMARK   33  A    between atoms: _84  and  _85
REMARK   34  A    between atoms: _88  and  _90
REMARK   35  A    between atoms: _90  and  _91
REMARK   36  A    between atoms: _90  and  _93
REMARK   37  A    between atoms: _93  and  _94
REMARK   38  A    between atoms: _96  and  _98
REMARK   39  A    between atoms: _98  and  _99
REMARK   40  A    between atoms: _98  and  _101
REMARK   41  A    between atoms: _101  and  _102
REMARK   42  A    between atoms: _102  and  _103
REMARK   43  A    between atoms: _108  and  _110
REMARK   44  A    between atoms: _110  and  _111
REMARK   45  A    between atoms: _110  and  _113
REMARK   46  A    between atoms: _113  and  _114
REMARK   47  A    between atoms: _119  and  _121
REMARK   48  A    between atoms: _121  and  _122
REMARK   49  A    between atoms: _121  and  _124
REMARK   50  A    between atoms: _124  and  _125
REMARK   51  A    between atoms: _128  and  _130
REMARK   52  A    between atoms: _130  and  _131
REMARK   53  A    between atoms: _130  and  _133
REMARK   54  A    between atoms: _133  and  _134
REMARK   55  A    between atoms: _140  and  _142
REMARK   56  A    between atoms: _142  and  _143
REMARK   57  A    between atoms: _142  and  _145
REMARK   58  A    between atoms: _145  and  _146
REMARK   59  A    between atoms: _149  and  _151
REMARK   60  A    between atoms: _151  and  _152
REMARK   61  A    between atoms: _151  and  _154
REMARK   62  A    between atoms: _154  and  _155
REMARK   63  A    between atoms: _158  and  _160
REMARK   64  A    between atoms: _160  and  _161
REMARK   65  A    between atoms: _160  and  _163
REMARK   66  A    between atoms: _163  and  _164
REMARK   67  A    between atoms: _174  and  _176
REMARK   68  A    between atoms: _176  and  _177
REMARK   69  A    between atoms: _180  and  _182
REMARK   70  A    between atoms: _182  and  _183
REMARK   71  A    between atoms: _182  and  _185
REMARK   72  A    between atoms: _185  and  _186
REMARK   73  A    between atoms: _189  and  _191
REMARK   74  A    between atoms: _191  and  _192
REMARK   75  A    between atoms: _191  and  _194
REMARK   76  A    between atoms: _194  and  _195
REMARK   77  A    between atoms: _205  and  _207
REMARK   78  A    between atoms: _207  and  _208
REMARK   79  A    between atoms: _207  and  _210
REMARK   80  A    between atoms: _210  and  _211
REMARK   81  A    between atoms: _216  and  _218
REMARK   82  A    between atoms: _218  and  _219
REMARK   83  A    between atoms: _218  and  _221
REMARK   84  A    between atoms: _221  and  _222
REMARK   85  A    between atoms: _225  and  _227
REMARK   86  A    between atoms: _227  and  _228
REMARK   87  A    between atoms: _227  and  _230
REMARK   88  A    between atoms: _232  and  _234
REMARK   89  A    between atoms: _234  and  _235
REMARK   90  A    between atoms: _234  and  _237
REMARK   91  A    between atoms: _237  and  _238
REMARK   92  A    between atoms: _241  and  _243
REMARK   93  A    between atoms: _243  and  _244
REMARK   94  A    between atoms: _243  and  _246
REMARK   95  A    between atoms: _246  and  _247
REMARK   96  A    between atoms: _252  and  _254
REMARK   97  A    between atoms: _254  and  _255
REMARK   98  A    between atoms: _254  and  _257
REMARK   99  A    between atoms: _257  and  _258
REMARK  100  A    between atoms: _258  and  _259
REMARK  101  A    between atoms: _264  and  _266
REMARK  102  A    between atoms: _266  and  _267
REMARK  103  A    between atoms: _266  and  _269
REMARK  104  A    between atoms: _269  and  _270
REMARK  105  A    between atoms: _276  and  _278
REMARK  106  A    between atoms: _278  and  _279
REMARK  107  A    between atoms: _278  and  _281
REMARK  108  A    between atoms: _281  and  _282
REMARK  109  A    between atoms: _282  and  _283
REMARK  110  A    between atoms: _283  and  _284
REMARK  111  A    between atoms: _293  and  _295
REMARK  112  A    between atoms: _295  and  _296
REMARK  113  A    between atoms: _295  and  _298
REMARK  114  A    between atoms: _298  and  _299
REMARK  115  A    between atoms: _299  and  _300
REMARK  116  A    between atoms: _303  and  _305
REMARK  117  A    between atoms: _305  and  _306
REMARK  118  A    between atoms: _305  and  _308
REMARK  119  A    between atoms: _308  and  _309
REMARK  120  A    between atoms: _312  and  _314
REMARK  121  A    between atoms: _314  and  _315
REMARK  122  A    between atoms: _314  and  _317
REMARK  123  A    between atoms: _317  and  _318
REMARK  124  A    between atoms: _323  and  _324
REMARK  125  A    between atoms: _326  and  _328
REMARK  126  A    between atoms: _328  and  _329
REMARK  127  A    between atoms: _328  and  _331
REMARK  128  A    between atoms: _331  and  _332
REMARK  129  A    between atoms: _332  and  _333
REMARK  130  A    between atoms: _333  and  _334
REMARK  131  A    between atoms: _334  and  _335
REMARK  132  A    between atoms: _339  and  _341
REMARK  133  A    between atoms: _341  and  _342
REMARK  134  A    between atoms: _341  and  _344
REMARK  135  A    between atoms: _344  and  _345
REMARK  136  A    between atoms: _345  and  _346
REMARK  137  A    between atoms: _349  and  _351
REMARK  138  A    between atoms: _351  and  _352
REMARK  139  A    between atoms: _351  and  _354
REMARK  140  A    between atoms: _354  and  _355
REMARK  141  A    between atoms: _361  and  _363
REMARK  142  A    between atoms: _363  and  _364
REMARK  143  A    between atoms: _363  and  _366
REMARK  144  A    between atoms: _366  and  _367
REMARK  145  A    between atoms: _372  and  _374
REMARK  146  A    between atoms: _374  and  _375
REMARK  147  A    between atoms: _374  and  _377
REMARK  148  A    between atoms: _377  and  _378
REMARK  149  A    between atoms: _383  and  _385
REMARK  150  A    between atoms: _385  and  _386
REMARK  151  A    between atoms: _385  and  _388
REMARK  152  A    between atoms: _388  and  _389
REMARK  153  A    between atoms: _399  and  _401
REMARK  154  A    between atoms: _401  and  _402
REMARK  155  A    between atoms: _401  and  _404
REMARK  156  A    between atoms: _404  and  _405
REMARK  157  A    between atoms: _405  and  _406
REMARK  158  A    between atoms: _411  and  _413
REMARK  159  A    between atoms: _413  and  _414
REMARK  160  A    between atoms: _413  and  _416
REMARK  161  A    between atoms: _416  and  _417
REMARK  162  A    between atoms: _422  and  _424
REMARK  163  A    between atoms: _424  and  _425
REMARK  164  A    between atoms: _424  and  _427
REMARK  165  A    between atoms: _427  and  _428
REMARK  166  A    between atoms: _431  and  _433
REMARK  167  A    between atoms: _433  and  _434
REMARK  168  A    between atoms: _433  and  _436
REMARK  169  A    between atoms: _436  and  _437
REMARK  170  A    between atoms: _440  and  _442
REMARK  171  A    between atoms: _442  and  _443
REMARK  172  A    between atoms: _445  and  _447
REMARK  173  A    between atoms: _447  and  _448
REMARK  174  A    between atoms: _447  and  _450
REMARK  175  A    between atoms: _450  and  _451
REMARK  176  A    between atoms: _461  and  _463
REMARK  177  A    between atoms: _463  and  _464
REMARK  178  A    between atoms: _463  and  _466
REMARK  179  A    between atoms: _466  and  _467
REMARK  180  A    between atoms: _467  and  _468
REMARK                            x       y       z     vdW  Elec       q    Type
REMARK                         _______ _______ _______ _____ _____    ______ ____
ROOT
ATOM      1  NE  ARG A   1      10.295  32.936  90.473  0.00  0.00    -0.265 N 
ATOM      2  CZ  ARG A   1      10.279  34.070  91.157  0.00  0.00    +0.342 C 
ATOM      3  NH2 ARG A   1      10.285  34.035  92.477  0.00  0.00    -0.292 N 
ATOM      4 HH21 ARG A   1      10.273  34.921  93.021  0.00  0.00    +0.255 HD
ATOM      5 HH22 ARG A   1      10.302  33.121  92.973  0.00  0.00    +0.255 HD
ATOM      6  NH1 ARG A   1      10.293  35.246  90.527  0.00  0.00    -0.292 N 
ATOM      7 HH11 ARG A   1      10.280  36.130  91.075  0.00  0.00    +0.255 HD
ATOM      8 HH12 ARG A   1      10.317  35.279  89.488  0.00  0.00    +0.255 HD
ATOM      9  HE  ARG A   1      10.311  33.000  89.435  0.00  0.00    +0.259 HD
ENDROOT
BRANCH   1  10
ATOM     10  CD  ARG A   1      10.292  31.594  91.073  0.00  0.00    +0.174 C 
BRANCH  10  11
ATOM     11  CG  ARG A   1       8.884  31.102  91.464  0.00  0.00    +0.045 C 
BRANCH  11  12
ATOM     12  CB  ARG A   1       8.912  29.698  92.107  0.00  0.00    +0.029 C 
BRANCH  12  13
ATOM     13  CA  ARG A   1       9.918  29.533  93.281  0.00  0.00    +0.133 C 
BRANCH  13  14
ATOM     14  N   ARG A   1      10.038  28.103  93.684  0.00  0.00    -0.239 NA
ATOM     15  H   ARG A   1       9.204  27.489  93.589  0.00  0.00    +0.142 HD
ENDBRANCH  13  14
BRANCH  13  16
ATOM     16  C   ARG A   1       9.562  30.511  94.410  0.00  0.00    +0.224 C 
ATOM     17  O   ARG A   1      10.137  31.589  94.468  0.00  0.00    -0.287 OA
ENDBRANCH  13  16
ENDBRANCH  12  13
ENDBRANCH  11  12
ENDBRANCH  10  11
ENDBRANCH   1  10
TORSDOF 6
REMARK  Name = ../refined-set-2016/3qfy/3qfy_pocket.pdb
REMARK  180 active torsions:
REMARK  status: ('A' for Active; 'I' for Inactive)
REMARK    1  A    between atoms: _1  and  _3
REMARK    2  A    between atoms: _3  and  _4
REMARK    3  A    between atoms: _3  and  _6
REMARK    4  A    between atoms: _6  and  _7
REMARK    5  A    between atoms: _7  and  _8
REMARK    6  A    between atoms: _8  and  _9
REMARK    7  A    between atoms: _18  and  _20
REMARK    8  A    between atoms: _20  and  _21
REMARK    9  A    between atoms: _20  and  _23
REMARK   10  A    between atoms: _23  and  _24
REMARK   11  A    between atoms: _24  and  _25
REMARK   12  A    between atoms: _28  and  _30
REMARK   13  A    between atoms: _30  and  _31
REMARK   14  A    between atoms: _30  and  _33
REMARK   15  A    between atoms: _33  and  _34
REMARK   16  A    between atoms: _34  and  _35
REMARK   17  A    between atoms: _35  and  _36
REMARK   18  A    between atoms: _45  and  _47
REMARK   19  A    between atoms: _47  and  _48
REMARK   20  A    between atoms: _50  and  _52
REMARK   21  A    between atoms: _52  and  _53
REMARK   22  A    between atoms: _52  and  _55
REMARK   23  A    between atoms: _55  and  _56
REMARK   24  A    between atoms: _62  and  _64
REMARK   25  A    between atoms: _64  and  _65
REMARK   26  A    between atoms: _64  and  _67
REMARK   27  A    between atoms: _67  and  _68
REMARK   28  A    between atoms: _68  and  _69
REMARK   29  A    between atoms: _69  and  _70
REMARK   30  A    between atoms: _79  and  _81
REMARK   31  A    between atoms: _81  and  _82
REMARK   32  A    between atoms: _81  and  _84
REMARK   33  A    between atoms: _84  and  _85
REMARK   34  A    between atoms: _88  and  _90
REMARK   35  A    between atoms: _90  and  _91
REMARK   36  A    between atoms: _90  and  _93
REMARK   37  A    between atoms: _93  and  _94
REMARK   38  A    between atoms: _96  and  _98
REMARK   39  A    between atoms: _98  and  _99
REMARK   40  A    between atoms: _98  and  _101
REMARK   41  A    between atoms: _101  and  _102
REMARK   42  A    between atoms: _102  and  _103
REMARK   43  A    between atoms: _108  and  _110
REMARK   44  A    between atoms: _110  and  _111
REMARK   45  A    between atoms: _110  and  _113
REMARK   46  A    between atoms: _113  and  _114
REMARK   47  A    between atoms: _119  and  _121
REMARK   48  A    between atoms: _121  and  _122
REMARK   49  A    between atoms: _121  and  _124
REMARK   50  A    between atoms: _124  and  _125
REMARK   51  A    between atoms: _128  and  _130
REMARK   52  A    between atoms: _130  and  _131
REMARK   53  A    between atoms: _130  and  _133
REMARK   54  A    between atoms: _133  and  _134
REMARK   55  A    between atoms: _140  and  _142
REMARK   56  A    between atoms: _142  and  _143
REMARK   57  A    between atoms: _142  and  _145
REMARK   58  A    between atoms: _145  and  _146
REMARK   59  A    between atoms: _149  and  _151
REMARK   60  A    between atoms: _151  and  _152
REMARK   61  A    between atoms: _151  and  _154
REMARK   62  A    between atoms: _154  and  _155
REMARK   63  A    between atoms: _158  and  _160
REMARK   64  A    between atoms: _160  and  _161
REMARK   65  A    between atoms: _160  and  _163
REMARK   66  A    between atoms: _163  and  _164
REMARK   67  A    between atoms: _174  and  _176
REMARK   68  A    between atoms: _176  and  _177
REMARK   69  A    between atoms: _180  and  _182
REMARK   70  A    between atoms: _182  and  _183
REMARK   71  A    between atoms: _182  and  _185
REMARK   72  A    between atoms: _185  and  _186
REMARK   73  A    between atoms: _189  and  _191
REMARK   74  A    between atoms: _191  and  _192
REMARK   75  A    between atoms: _191  and  _194
REMARK   76  A    between atoms: _194  and  _195
REMARK   77  A    between atoms: _205  and  _207
REMARK   78  A    between atoms: _207  and  _208
REMARK   79  A    between atoms: _207  and  _210
REMARK   80  A    between atoms: _210  and  _211
REMARK   81  A    between atoms: _216  and  _218
REMARK   82  A    between atoms: _218  and  _219
REMARK   83  A    between atoms: _218  and  _221
REMARK   84  A    between atoms: _221  and  _222
REMARK   85  A    between atoms: _225  and  _227
REMARK   86  A    between atoms: _227  and  _228
REMARK   87  A    between atoms: _227  and  _230
REMARK   88  A    between atoms: _232  and  _234
REMARK   89  A    between atoms: _234  and  _235
REMARK   90  A    between atoms: _234  and  _237
REMARK   91  A    between atoms: _237  and  _238
REMARK   92  A    between atoms: _241  and  _243
REMARK   93  A    between atoms: _243  and  _244
REMARK   94  A    between atoms: _243  and  _246
REMARK   95  A    between atoms: _246  and  _247
REMARK   96  A    between atoms: _252  and  _254
REMARK   97  A    between atoms: _254  and  _255
REMARK   98  A    between atoms: _254  and  _257
REMARK   99  A    between atoms: _257  and  _258
REMARK  100  A    between atoms: _258  and  _259
REMARK  101  A    between atoms: _264  and  _266
REMARK  102  A    between atoms: _266  and  _267
REMARK  103  A    between atoms: _266  and  _269
REMARK  104  A    between atoms: _269  and  _270
REMARK  105  A    between atoms: _276  and  _278
REMARK  106  A    between atoms: _278  and  _279
REMARK  107  A    between atoms: _278  and  _281
REMARK  108  A    between atoms: _281  and  _282
REMARK  109  A    between atoms: _282  and  _283
REMARK  110  A    between atoms: _283  and  _284
REMARK  111  A    between atoms: _293  and  _295
REMARK  112  A    between atoms: _295  and  _296
REMARK  113  A    between atoms: _295  and  _298
REMARK  114  A    between atoms: _298  and  _299
REMARK  115  A    between atoms: _299  and  _300
REMARK  116  A    between atoms: _303  and  _305
REMARK  117  A    between atoms: _305  and  _306
REMARK  118  A    between atoms: _305  and  _308
REMARK  119  A    between atoms: _308  and  _309
REMARK  120  A    between atoms: _312  and  _314
REMARK  121  A    between atoms: _314  and  _315
REMARK  122  A    between atoms: _314  and  _317
REMARK  123  A    between atoms: _317  and  _318
REMARK  124  A    between atoms: _323  and  _324
REMARK  125  A    between atoms: _326  and  _328
REMARK  126  A    between atoms: _328  and  _329
REMARK  127  A    between atoms: _328  and  _331
REMARK  128  A    between atoms: _331  and  _332
REMARK  129  A    between atoms: _332  and  _333
REMARK  130  A    between atoms: _333  and  _334
REMARK  131  A    between atoms: _334  and  _335
REMARK  132  A    between atoms: _339  and  _341
REMARK  133  A    between atoms: _341  and  _342
REMARK  134  A    between atoms: _341  and  _344
REMARK  135  A    between atoms: _344  and  _345
REMARK  136  A    between atoms: _345  and  _346
REMARK  137  A    between atoms: _349  and  _351
REMARK  138  A    between atoms: _351  and  _352
REMARK  139  A    between atoms: _351  and  _354
REMARK  140  A    between atoms: _354  and  _355
REMARK  141  A    between atoms: _361  and  _363
REMARK  142  A    between atoms: _363  and  _364
REMARK  143  A    between atoms: _363  and  _366
REMARK  144  A    between atoms: _366  and  _367
REMARK  145  A    between atoms: _372  and  _374
REMARK  146  A    between atoms: _374  and  _375
REMARK  147  A    between atoms: _374  and  _377
REMARK  148  A    between atoms: _377  and  _378
REMARK  149  A    between atoms: _383  and  _385
REMARK  150  A    between atoms: _385  and  _386
REMARK  151  A    between atoms: _385  and  _388
REMARK  152  A    between atoms: _388  and  _389
REMARK  153  A    between atoms: _399  and  _401
REMARK  154  A    between atoms: _401  and  _402
REMARK  155  A    between atoms: _401  and  _404
REMARK  156  A    between atoms: _404  and  _405
REMARK  157  A    between atoms: _405  and  _406
REMARK  158  A    between atoms: _411  and  _413
REMARK  159  A    between atoms: _413  and  _414
REMARK  160  A    between atoms: _413  and  _416
REMARK  161  A    between atoms: _416  and  _417
REMARK  162  A    between atoms: _422  and  _424
REMARK  163  A    between atoms: _424  and  _425
REMARK  164  A    between atoms: _424  and  _427
REMARK  165  A    between atoms: _427  and  _428
REMARK  166  A    between atoms: _431  and  _433
REMARK  167  A    between atoms: _433  and  _434
REMARK  168  A    between atoms: _433  and  _436
REMARK  169  A    between atoms: _436  and  _437
REMARK  170  A    between atoms: _440  and  _442
REMARK  171  A    between atoms: _442  and  _443
REMARK  172  A    between atoms: _445  and  _447
REMARK  173  A    between atoms: _447  and  _448
REMARK  174  A    between atoms: _447  and  _450
REMARK  175  A    between atoms: _450  and  _451
REMARK  176  A    between atoms: _461  and  _463
REMARK  177  A    between atoms: _463  and  _464
REMARK  178  A    between atoms: _463  and  _466
REMARK  179  A    between atoms: _466  and  _467
REMARK  180  A    between atoms: _467  and  _468
REMARK                            x       y       z     vdW  Elec       q    Type
REMARK                         _______ _______ _______ _____ _____    ______ ____
ROOT
ATOM      1  CA  GLU A   1      14.850  32.400  88.065  0.00  0.00    +0.134 C 
ENDROOT
BRANCH   1   2
ATOM      2  N   GLU A   1      14.082  31.372  87.370  0.00  0.00    -0.239 NA
ATOM      3  H   GLU A   1      13.050  31.466  87.282  0.00  0.00    +0.142 HD
ENDBRANCH   1   2
BRANCH   1   4
ATOM      4  C   GLU A   1      15.662  31.888  89.244  0.00  0.00    +0.224 C 
ATOM      5  O   GLU A   1      16.833  32.183  89.322  0.00  0.00    -0.287 OA
ENDBRANCH   1   4
BRANCH   1   6
ATOM      6  CB  GLU A   1      13.992  33.541  88.564  0.00  0.00    +0.037 C 
BRANCH   6   7
ATOM      7  CG  GLU A   1      13.012  34.126  87.579  0.00  0.00    +0.116 C 
BRANCH   7   8
ATOM      8  CD  GLU A   1      11.617  33.579  87.745  0.00  0.00    +0.365 C 
ATOM      9  OE2 GLU A   1      11.464  32.335  87.881  0.00  0.00    -0.246 OA
ATOM     10  OE1 GLU A   1      10.672  34.403  87.666  0.00  0.00    -0.246 OA
ENDBRANCH   7   8
ENDBRANCH   6   7
ENDBRANCH   1   6
TORSDOF 5
REMARK  Name = ../refined-set-2016/3qfy/3qfy_pocket.pdb
REMARK  180 active torsions:
REMARK  status: ('A' for Active; 'I' for Inactive)
REMARK    1  A    between atoms: _1  and  _3
REMARK    2  A    between atoms: _3  and  _4
REMARK    3  A    between atoms: _3  and  _6
REMARK    4  A    between atoms: _6  and  _7
REMARK    5  A    between atoms: _7  and  _8
REMARK    6  A    between atoms: _8  and  _9
REMARK    7  A    between atoms: _18  and  _20
REMARK    8  A    between atoms: _20  and  _21
REMARK    9  A    between atoms: _20  and  _23
REMARK   10  A    between atoms: _23  and  _24
REMARK   11  A    between atoms: _24  and  _25
REMARK   12  A    between atoms: _28  and  _30
REMARK   13  A    between atoms: _30  and  _31
REMARK   14  A    between atoms: _30  and  _33
REMARK   15  A    between atoms: _33  and  _34
REMARK   16  A    between atoms: _34  and  _35
REMARK   17  A    between atoms: _35  and  _36
REMARK   18  A    between atoms: _45  and  _47
REMARK   19  A    between atoms: _47  and  _48
REMARK   20  A    between atoms: _50  and  _52
REMARK   21  A    between atoms: _52  and  _53
REMARK   22  A    between atoms: _52  and  _55
REMARK   23  A    between atoms: _55  and  _56
REMARK   24  A    between atoms: _62  and  _64
REMARK   25  A    between atoms: _64  and  _65
REMARK   26  A    between atoms: _64  and  _67
REMARK   27  A    between atoms: _67  and  _68
REMARK   28  A    between atoms: _68  and  _69
REMARK   29  A    between atoms: _69  and  _70
REMARK   30  A    between atoms: _79  and  _81
REMARK   31  A    between atoms: _81  and  _82
REMARK   32  A    between atoms: _81  and  _84
REMARK   33  A    between atoms: _84  and  _85
REMARK   34  A    between atoms: _88  and  _90
REMARK   35  A    between atoms: _90  and  _91
REMARK   36  A    between atoms: _90  and  _93
REMARK   37  A    between atoms: _93  and  _94
REMARK   38  A    between atoms: _96  and  _98
REMARK   39  A    between atoms: _98  and  _99
REMARK   40  A    between atoms: _98  and  _101
REMARK   41  A    between atoms: _101  and  _102
REMARK   42  A    between atoms: _102  and  _103
REMARK   43  A    between atoms: _108  and  _110
REMARK   44  A    between atoms: _110  and  _111
REMARK   45  A    between atoms: _110  and  _113
REMARK   46  A    between atoms: _113  and  _114
REMARK   47  A    between atoms: _119  and  _121
REMARK   48  A    between atoms: _121  and  _122
REMARK   49  A    between atoms: _121  and  _124
REMARK   50  A    between atoms: _124  and  _125
REMARK   51  A    between atoms: _128  and  _130
REMARK   52  A    between atoms: _130  and  _131
REMARK   53  A    between atoms: _130  and  _133
REMARK   54  A    between atoms: _133  and  _134
REMARK   55  A    between atoms: _140  and  _142
REMARK   56  A    between atoms: _142  and  _143
REMARK   57  A    between atoms: _142  and  _145
REMARK   58  A    between atoms: _145  and  _146
REMARK   59  A    between atoms: _149  and  _151
REMARK   60  A    between atoms: _151  and  _152
REMARK   61  A    between atoms: _151  and  _154
REMARK   62  A    between atoms: _154  and  _155
REMARK   63  A    between atoms: _158  and  _160
REMARK   64  A    between atoms: _160  and  _161
REMARK   65  A    between atoms: _160  and  _163
REMARK   66  A    between atoms: _163  and  _164
REMARK   67  A    between atoms: _174  and  _176
REMARK   68  A    between atoms: _176  and  _177
REMARK   69  A    between atoms: _180  and  _182
REMARK   70  A    between atoms: _182  and  _183
REMARK   71  A    between atoms: _182  and  _185
REMARK   72  A    between atoms: _185  and  _186
REMARK   73  A    between atoms: _189  and  _191
REMARK   74  A    between atoms: _191  and  _192
REMARK   75  A    between atoms: _191  and  _194
REMARK   76  A    between atoms: _194  and  _195
REMARK   77  A    between atoms: _205  and  _207
REMARK   78  A    between atoms: _207  and  _208
REMARK   79  A    between atoms: _207  and  _210
REMARK   80  A    between atoms: _210  and  _211
REMARK   81  A    between atoms: _216  and  _218
REMARK   82  A    between atoms: _218  and  _219
REMARK   83  A    between atoms: _218  and  _221
REMARK   84  A    between atoms: _221  and  _222
REMARK   85  A    between atoms: _225  and  _227
REMARK   86  A    between atoms: _227  and  _228
REMARK   87  A    between atoms: _227  and  _230
REMARK   88  A    between atoms: _232  and  _234
REMARK   89  A    between atoms: _234  and  _235
REMARK   90  A    between atoms: _234  and  _237
REMARK   91  A    between atoms: _237  and  _238
REMARK   92  A    between atoms: _241  and  _243
REMARK   93  A    between atoms: _243  and  _244
REMARK   94  A    between atoms: _243  and  _246
REMARK   95  A    between atoms: _246  and  _247
REMARK   96  A    between atoms: _252  and  _254
REMARK   97  A    between atoms: _254  and  _255
REMARK   98  A    between atoms: _254  and  _257
REMARK   99  A    between atoms: _257  and  _258
REMARK  100  A    between atoms: _258  and  _259
REMARK  101  A    between atoms: _264  and  _266
REMARK  102  A    between atoms: _266  and  _267
REMARK  103  A    between atoms: _266  and  _269
REMARK  104  A    between atoms: _269  and  _270
REMARK  105  A    between atoms: _276  and  _278
REMARK  106  A    between atoms: _278  and  _279
REMARK  107  A    between atoms: _278  and  _281
REMARK  108  A    between atoms: _281  and  _282
REMARK  109  A    between atoms: _282  and  _283
REMARK  110  A    between atoms: _283  and  _284
REMARK  111  A    between atoms: _293  and  _295
REMARK  112  A    between atoms: _295  and  _296
REMARK  113  A    between atoms: _295  and  _298
REMARK  114  A    between atoms: _298  and  _299
REMARK  115  A    between atoms: _299  and  _300
REMARK  116  A    between atoms: _303  and  _305
REMARK  117  A    between atoms: _305  and  _306
REMARK  118  A    between atoms: _305  and  _308
REMARK  119  A    between atoms: _308  and  _309
REMARK  120  A    between atoms: _312  and  _314
REMARK  121  A    between atoms: _314  and  _315
REMARK  122  A    between atoms: _314  and  _317
REMARK  123  A    between atoms: _317  and  _318
REMARK  124  A    between atoms: _323  and  _324
REMARK  125  A    between atoms: _326  and  _328
REMARK  126  A    between atoms: _328  and  _329
REMARK  127  A    between atoms: _328  and  _331
REMARK  128  A    between atoms: _331  and  _332
REMARK  129  A    between atoms: _332  and  _333
REMARK  130  A    between atoms: _333  and  _334
REMARK  131  A    between atoms: _334  and  _335
REMARK  132  A    between atoms: _339  and  _341
REMARK  133  A    between atoms: _341  and  _342
REMARK  134  A    between atoms: _341  and  _344
REMARK  135  A    between atoms: _344  and  _345
REMARK  136  A    between atoms: _345  and  _346
REMARK  137  A    between atoms: _349  and  _351
REMARK  138  A    between atoms: _351  and  _352
REMARK  139  A    between atoms: _351  and  _354
REMARK  140  A    between atoms: _354  and  _355
REMARK  141  A    between atoms: _361  and  _363
REMARK  142  A    between atoms: _363  and  _364
REMARK  143  A    between atoms: _363  and  _366
REMARK  144  A    between atoms: _366  and  _367
REMARK  145  A    between atoms: _372  and  _374
REMARK  146  A    between atoms: _374  and  _375
REMARK  147  A    between atoms: _374  and  _377
REMARK  148  A    between atoms: _377  and  _378
REMARK  149  A    between atoms: _383  and  _385
REMARK  150  A    between atoms: _385  and  _386
REMARK  151  A    between atoms: _385  and  _388
REMARK  152  A    between atoms: _388  and  _389
REMARK  153  A    between atoms: _399  and  _401
REMARK  154  A    between atoms: _401  and  _402
REMARK  155  A    between atoms: _401  and  _404
REMARK  156  A    between atoms: _404  and  _405
REMARK  157  A    between atoms: _405  and  _406
REMARK  158  A    between atoms: _411  and  _413
REMARK  159  A    between atoms: _413  and  _414
REMARK  160  A    between atoms: _413  and  _416
REMARK  161  A    between atoms: _416  and  _417
REMARK  162  A    between atoms: _422  and  _424
REMARK  163  A    between atoms: _424  and  _425
REMARK  164  A    between atoms: _424  and  _427
REMARK  165  A    between atoms: _427  and  _428
REMARK  166  A    between atoms: _431  and  _433
REMARK  167  A    between atoms: _433  and  _434
REMARK  168  A    between atoms: _433  and  _436
REMARK  169  A    between atoms: _436  and  _437
REMARK  170  A    between atoms: _440  and  _442
REMARK  171  A    between atoms: _442  and  _443
REMARK  172  A    between atoms: _445  and  _447
REMARK  173  A    between atoms: _447  and  _448
REMARK  174  A    between atoms: _447  and  _450
REMARK  175  A    between atoms: _450  and  _451
REMARK  176  A    between atoms: _461  and  _463
REMARK  177  A    between atoms: _463  and  _464
REMARK  178  A    between atoms: _463  and  _466
REMARK  179  A    between atoms: _466  and  _467
REMARK  180  A    between atoms: _467  and  _468
REMARK                            x       y       z     vdW  Elec       q    Type
REMARK                         _______ _______ _______ _____ _____    ______ ____
ROOT
ATOM      1  CA  LEU A   1      10.535  31.242  82.236  0.00  0.00    +0.133 C 
ENDROOT
BRANCH   1   2
ATOM      2  N   LEU A   1      10.466  30.814  80.827  0.00  0.00    -0.239 NA
ATOM      3  H   LEU A   1       9.768  31.248  80.190  0.00  0.00    +0.142 HD
ENDBRANCH   1   2
BRANCH   1   4
ATOM      4  C   LEU A   1      10.047  30.125  83.200  0.00  0.00    +0.224 C 
ATOM      5  O   LEU A   1      10.647  29.859  84.239  0.00  0.00    -0.287 OA
ENDBRANCH   1   4
BRANCH   1   6
ATOM      6  CB  LEU A   1       9.732  32.556  82.423  0.00  0.00    +0.025 C 
BRANCH   6   7
ATOM      7  CG  LEU A   1      10.054  33.427  83.668  0.00  0.00    +0.002 C 
ATOM      8  CD2 LEU A   1       9.223  33.014  84.841  0.00  0.00    +0.000 C 
ATOM      9  CD1 LEU A   1       9.831  34.889  83.395  0.00  0.00    +0.000 C 
ENDBRANCH   6   7
ENDBRANCH   1   6
TORSDOF 4
REMARK  Name = ../refined-set-2016/3qfy/3qfy_pocket.pdb
REMARK  180 active torsions:
REMARK  status: ('A' for Active; 'I' for Inactive)
REMARK    1  A    between atoms: _1  and  _3
REMARK    2  A    between atoms: _3  and  _4
REMARK    3  A    between atoms: _3  and  _6
REMARK    4  A    between atoms: _6  and  _7
REMARK    5  A    between atoms: _7  and  _8
REMARK    6  A    between atoms: _8  and  _9
REMARK    7  A    between atoms: _18  and  _20
REMARK    8  A    between atoms: _20  and  _21
REMARK    9  A    between atoms: _20  and  _23
REMARK   10  A    between atoms: _23  and  _24
REMARK   11  A    between atoms: _24  and  _25
REMARK   12  A    between atoms: _28  and  _30
REMARK   13  A    between atoms: _30  and  _31
REMARK   14  A    between atoms: _30  and  _33
REMARK   15  A    between atoms: _33  and  _34
REMARK   16  A    between atoms: _34  and  _35
REMARK   17  A    between atoms: _35  and  _36
REMARK   18  A    between atoms: _45  and  _47
REMARK   19  A    between atoms: _47  and  _48
REMARK   20  A    between atoms: _50  and  _52
REMARK   21  A    between atoms: _52  and  _53
REMARK   22  A    between atoms: _52  and  _55
REMARK   23  A    between atoms: _55  and  _56
REMARK   24  A    between atoms: _62  and  _64
REMARK   25  A    between atoms: _64  and  _65
REMARK   26  A    between atoms: _64  and  _67
REMARK   27  A    between atoms: _67  and  _68
REMARK   28  A    between atoms: _68  and  _69
REMARK   29  A    between atoms: _69  and  _70
REMARK   30  A    between atoms: _79  and  _81
REMARK   31  A    between atoms: _81  and  _82
REMARK   32  A    between atoms: _81  and  _84
REMARK   33  A    between atoms: _84  and  _85
REMARK   34  A    between atoms: _88  and  _90
REMARK   35  A    between atoms: _90  and  _91
REMARK   36  A    between atoms: _90  and  _93
REMARK   37  A    between atoms: _93  and  _94
REMARK   38  A    between atoms: _96  and  _98
REMARK   39  A    between atoms: _98  and  _99
REMARK   40  A    between atoms: _98  and  _101
REMARK   41  A    between atoms: _101  and  _102
REMARK   42  A    between atoms: _102  and  _103
REMARK   43  A    between atoms: _108  and  _110
REMARK   44  A    between atoms: _110  and  _111
REMARK   45  A    between atoms: _110  and  _113
REMARK   46  A    between atoms: _113  and  _114
REMARK   47  A    between atoms: _119  and  _121
REMARK   48  A    between atoms: _121  and  _122
REMARK   49  A    between atoms: _121  and  _124
REMARK   50  A    between atoms: _124  and  _125
REMARK   51  A    between atoms: _128  and  _130
REMARK   52  A    between atoms: _130  and  _131
REMARK   53  A    between atoms: _130  and  _133
REMARK   54  A    between atoms: _133  and  _134
REMARK   55  A    between atoms: _140  and  _142
REMARK   56  A    between atoms: _142  and  _143
REMARK   57  A    between atoms: _142  and  _145
REMARK   58  A    between atoms: _145  and  _146
REMARK   59  A    between atoms: _149  and  _151
REMARK   60  A    between atoms: _151  and  _152
REMARK   61  A    between atoms: _151  and  _154
REMARK   62  A    between atoms: _154  and  _155
REMARK   63  A    between atoms: _158  and  _160
REMARK   64  A    between atoms: _160  and  _161
REMARK   65  A    between atoms: _160  and  _163
REMARK   66  A    between atoms: _163  and  _164
REMARK   67  A    between atoms: _174  and  _176
REMARK   68  A    between atoms: _176  and  _177
REMARK   69  A    between atoms: _180  and  _182
REMARK   70  A    between atoms: _182  and  _183
REMARK   71  A    between atoms: _182  and  _185
REMARK   72  A    between atoms: _185  and  _186
REMARK   73  A    between atoms: _189  and  _191
REMARK   74  A    between atoms: _191  and  _192
REMARK   75  A    between atoms: _191  and  _194
REMARK   76  A    between atoms: _194  and  _195
REMARK   77  A    between atoms: _205  and  _207
REMARK   78  A    between atoms: _207  and  _208
REMARK   79  A    between atoms: _207  and  _210
REMARK   80  A    between atoms: _210  and  _211
REMARK   81  A    between atoms: _216  and  _218
REMARK   82  A    between atoms: _218  and  _219
REMARK   83  A    between atoms: _218  and  _221
REMARK   84  A    between atoms: _221  and  _222
REMARK   85  A    between atoms: _225  and  _227
REMARK   86  A    between atoms: _227  and  _228
REMARK   87  A    between atoms: _227  and  _230
REMARK   88  A    between atoms: _232  and  _234
REMARK   89  A    between atoms: _234  and  _235
REMARK   90  A    between atoms: _234  and  _237
REMARK   91  A    between atoms: _237  and  _238
REMARK   92  A    between atoms: _241  and  _243
REMARK   93  A    between atoms: _243  and  _244
REMARK   94  A    between atoms: _243  and  _246
REMARK   95  A    between atoms: _246  and  _247
REMARK   96  A    between atoms: _252  and  _254
REMARK   97  A    between atoms: _254  and  _255
REMARK   98  A    between atoms: _254  and  _257
REMARK   99  A    between atoms: _257  and  _258
REMARK  100  A    between atoms: _258  and  _259
REMARK  101  A    between atoms: _264  and  _266
REMARK  102  A    between atoms: _266  and  _267
REMARK  103  A    between atoms: _266  and  _269
REMARK  104  A    between atoms: _269  and  _270
REMARK  105  A    between atoms: _276  and  _278
REMARK  106  A    between atoms: _278  and  _279
REMARK  107  A    between atoms: _278  and  _281
REMARK  108  A    between atoms: _281  and  _282
REMARK  109  A    between atoms: _282  and  _283
REMARK  110  A    between atoms: _283  and  _284
REMARK  111  A    between atoms: _293  and  _295
REMARK  112  A    between atoms: _295  and  _296
REMARK  113  A    between atoms: _295  and  _298
REMARK  114  A    between atoms: _298  and  _299
REMARK  115  A    between atoms: _299  and  _300
REMARK  116  A    between atoms: _303  and  _305
REMARK  117  A    between atoms: _305  and  _306
REMARK  118  A    between atoms: _305  and  _308
REMARK  119  A    between atoms: _308  and  _309
REMARK  120  A    between atoms: _312  and  _314
REMARK  121  A    between atoms: _314  and  _315
REMARK  122  A    between atoms: _314  and  _317
REMARK  123  A    between atoms: _317  and  _318
REMARK  124  A    between atoms: _323  and  _324
REMARK  125  A    between atoms: _326  and  _328
REMARK  126  A    between atoms: _328  and  _329
REMARK  127  A    between atoms: _328  and  _331
REMARK  128  A    between atoms: _331  and  _332
REMARK  129  A    between atoms: _332  and  _333
REMARK  130  A    between atoms: _333  and  _334
REMARK  131  A    between atoms: _334  and  _335
REMARK  132  A    between atoms: _339  and  _341
REMARK  133  A    between atoms: _341  and  _342
REMARK  134  A    between atoms: _341  and  _344
REMARK  135  A    between atoms: _344  and  _345
REMARK  136  A    between atoms: _345  and  _346
REMARK  137  A    between atoms: _349  and  _351
REMARK  138  A    between atoms: _351  and  _352
REMARK  139  A    between atoms: _351  and  _354
REMARK  140  A    between atoms: _354  and  _355
REMARK  141  A    between atoms: _361  and  _363
REMARK  142  A    between atoms: _363  and  _364
REMARK  143  A    between atoms: _363  and  _366
REMARK  144  A    between atoms: _366  and  _367
REMARK  145  A    between atoms: _372  and  _374
REMARK  146  A    between atoms: _374  and  _375
REMARK  147  A    between atoms: _374  and  _377
REMARK  148  A    between atoms: _377  and  _378
REMARK  149  A    between atoms: _383  and  _385
REMARK  150  A    between atoms: _385  and  _386
REMARK  151  A    between atoms: _385  and  _388
REMARK  152  A    between atoms: _388  and  _389
REMARK  153  A    between atoms: _399  and  _401
REMARK  154  A    between atoms: _401  and  _402
REMARK  155  A    between atoms: _401  and  _404
REMARK  156  A    between atoms: _404  and  _405
REMARK  157  A    between atoms: _405  and  _406
REMARK  158  A    between atoms: _411  and  _413
REMARK  159  A    between atoms: _413  and  _414
REMARK  160  A    between atoms: _413  and  _416
REMARK  161  A    between atoms: _416  and  _417
REMARK  162  A    between atoms: _422  and  _424
REMARK  163  A    between atoms: _424  and  _425
REMARK  164  A    between atoms: _424  and  _427
REMARK  165  A    between atoms: _427  and  _428
REMARK  166  A    between atoms: _431  and  _433
REMARK  167  A    between atoms: _433  and  _434
REMARK  168  A    between atoms: _433  and  _436
REMARK  169  A    between atoms: _436  and  _437
REMARK  170  A    between atoms: _440  and  _442
REMARK  171  A    between atoms: _442  and  _443
REMARK  172  A    between atoms: _445  and  _447
REMARK  173  A    between atoms: _447  and  _448
REMARK  174  A    between atoms: _447  and  _450
REMARK  175  A    between atoms: _450  and  _451
REMARK  176  A    between atoms: _461  and  _463
REMARK  177  A    between atoms: _463  and  _464
REMARK  178  A    between atoms: _463  and  _466
REMARK  179  A    between atoms: _466  and  _467
REMARK  180  A    between atoms: _467  and  _468
REMARK                            x       y       z     vdW  Elec       q    Type
REMARK                         _______ _______ _______ _____ _____    ______ ____
ROOT
ATOM      1  CG  TYR A   1       1.402  37.768  79.655  0.00  0.00    -0.020 A 
ATOM      2  CD2 TYR A   1       1.998  38.160  80.883  0.00  0.00    -0.001 A 
ATOM      3  CE2 TYR A   1       2.469  39.465  81.061  0.00  0.00    +0.036 A 
ATOM      4  CZ  TYR A   1       2.351  40.388  79.985  0.00  0.00    +0.134 A 
ATOM      5  CE1 TYR A   1       1.783  40.034  78.751  0.00  0.00    +0.036 A 
ATOM      6  CD1 TYR A   1       1.307  38.735  78.589  0.00  0.00    -0.001 A 
ENDROOT
BRANCH   4   7
ATOM      7  OH  TYR A   1       2.813  41.654  80.158  0.00  0.00    -0.506 OA
ATOM      8  HH  TYR A   1       3.181  41.748  81.072  0.00  0.00    +0.292 HD
ENDBRANCH   4   7
BRANCH   1   9
ATOM      9  CB  TYR A   1       0.889  36.347  79.467  0.00  0.00    +0.051 C 
BRANCH   9  10
ATOM     10  CA  TYR A   1      -0.631  36.222  79.507  0.00  0.00    +0.137 C 
BRANCH  10  11
ATOM     11  N   TYR A   1      -1.152  36.395  80.864  0.00  0.00    -0.239 NA
ATOM     12  H   TYR A   1      -0.511  36.306  81.678  0.00  0.00    +0.142 HD
ENDBRANCH  10  11
BRANCH  10  13
ATOM     13  C   TYR A   1      -1.015  34.866  78.893  0.00  0.00    +0.224 C 
ATOM     14  O   TYR A   1      -0.910  33.814  79.549  0.00  0.00    -0.287 OA
ENDBRANCH  10  13
ENDBRANCH   9  10
ENDBRANCH   1   9
TORSDOF 5
REMARK  Name = ../refined-set-2016/3qfy/3qfy_pocket.pdb
REMARK  180 active torsions:
REMARK  status: ('A' for Active; 'I' for Inactive)
REMARK    1  A    between atoms: _1  and  _3
REMARK    2  A    between atoms: _3  and  _4
REMARK    3  A    between atoms: _3  and  _6
REMARK    4  A    between atoms: _6  and  _7
REMARK    5  A    between atoms: _7  and  _8
REMARK    6  A    between atoms: _8  and  _9
REMARK    7  A    between atoms: _18  and  _20
REMARK    8  A    between atoms: _20  and  _21
REMARK    9  A    between atoms: _20  and  _23
REMARK   10  A    between atoms: _23  and  _24
REMARK   11  A    between atoms: _24  and  _25
REMARK   12  A    between atoms: _28  and  _30
REMARK   13  A    between atoms: _30  and  _31
REMARK   14  A    between atoms: _30  and  _33
REMARK   15  A    between atoms: _33  and  _34
REMARK   16  A    between atoms: _34  and  _35
REMARK   17  A    between atoms: _35  and  _36
REMARK   18  A    between atoms: _45  and  _47
REMARK   19  A    between atoms: _47  and  _48
REMARK   20  A    between atoms: _50  and  _52
REMARK   21  A    between atoms: _52  and  _53
REMARK   22  A    between atoms: _52  and  _55
REMARK   23  A    between atoms: _55  and  _56
REMARK   24  A    between atoms: _62  and  _64
REMARK   25  A    between atoms: _64  and  _65
REMARK   26  A    between atoms: _64  and  _67
REMARK   27  A    between atoms: _67  and  _68
REMARK   28  A    between atoms: _68  and  _69
REMARK   29  A    between atoms: _69  and  _70
REMARK   30  A    between atoms: _79  and  _81
REMARK   31  A    between atoms: _81  and  _82
REMARK   32  A    between atoms: _81  and  _84
REMARK   33  A    between atoms: _84  and  _85
REMARK   34  A    between atoms: _88  and  _90
REMARK   35  A    between atoms: _90  and  _91
REMARK   36  A    between atoms: _90  and  _93
REMARK   37  A    between atoms: _93  and  _94
REMARK   38  A    between atoms: _96  and  _98
REMARK   39  A    between atoms: _98  and  _99
REMARK   40  A    between atoms: _98  and  _101
REMARK   41  A    between atoms: _101  and  _102
REMARK   42  A    between atoms: _102  and  _103
REMARK   43  A    between atoms: _108  and  _110
REMARK   44  A    between atoms: _110  and  _111
REMARK   45  A    between atoms: _110  and  _113
REMARK   46  A    between atoms: _113  and  _114
REMARK   47  A    between atoms: _119  and  _121
REMARK   48  A    between atoms: _121  and  _122
REMARK   49  A    between atoms: _121  and  _124
REMARK   50  A    between atoms: _124  and  _125
REMARK   51  A    between atoms: _128  and  _130
REMARK   52  A    between atoms: _130  and  _131
REMARK   53  A    between atoms: _130  and  _133
REMARK   54  A    between atoms: _133  and  _134
REMARK   55  A    between atoms: _140  and  _142
REMARK   56  A    between atoms: _142  and  _143
REMARK   57  A    between atoms: _142  and  _145
REMARK   58  A    between atoms: _145  and  _146
REMARK   59  A    between atoms: _149  and  _151
REMARK   60  A    between atoms: _151  and  _152
REMARK   61  A    between atoms: _151  and  _154
REMARK   62  A    between atoms: _154  and  _155
REMARK   63  A    between atoms: _158  and  _160
REMARK   64  A    between atoms: _160  and  _161
REMARK   65  A    between atoms: _160  and  _163
REMARK   66  A    between atoms: _163  and  _164
REMARK   67  A    between atoms: _174  and  _176
REMARK   68  A    between atoms: _176  and  _177
REMARK   69  A    between atoms: _180  and  _182
REMARK   70  A    between atoms: _182  and  _183
REMARK   71  A    between atoms: _182  and  _185
REMARK   72  A    between atoms: _185  and  _186
REMARK   73  A    between atoms: _189  and  _191
REMARK   74  A    between atoms: _191  and  _192
REMARK   75  A    between atoms: _191  and  _194
REMARK   76  A    between atoms: _194  and  _195
REMARK   77  A    between atoms: _205  and  _207
REMARK   78  A    between atoms: _207  and  _208
REMARK   79  A    between atoms: _207  and  _210
REMARK   80  A    between atoms: _210  and  _211
REMARK   81  A    between atoms: _216  and  _218
REMARK   82  A    between atoms: _218  and  _219
REMARK   83  A    between atoms: _218  and  _221
REMARK   84  A    between atoms: _221  and  _222
REMARK   85  A    between atoms: _225  and  _227
REMARK   86  A    between atoms: _227  and  _228
REMARK   87  A    between atoms: _227  and  _230
REMARK   88  A    between atoms: _232  and  _234
REMARK   89  A    between atoms: _234  and  _235
REMARK   90  A    between atoms: _234  and  _237
REMARK   91  A    between atoms: _237  and  _238
REMARK   92  A    between atoms: _241  and  _243
REMARK   93  A    between atoms: _243  and  _244
REMARK   94  A    between atoms: _243  and  _246
REMARK   95  A    between atoms: _246  and  _247
REMARK   96  A    between atoms: _252  and  _254
REMARK   97  A    between atoms: _254  and  _255
REMARK   98  A    between atoms: _254  and  _257
REMARK   99  A    between atoms: _257  and  _258
REMARK  100  A    between atoms: _258  and  _259
REMARK  101  A    between atoms: _264  and  _266
REMARK  102  A    between atoms: _266  and  _267
REMARK  103  A    between atoms: _266  and  _269
REMARK  104  A    between atoms: _269  and  _270
REMARK  105  A    between atoms: _276  and  _278
REMARK  106  A    between atoms: _278  and  _279
REMARK  107  A    between atoms: _278  and  _281
REMARK  108  A    between atoms: _281  and  _282
REMARK  109  A    between atoms: _282  and  _283
REMARK  110  A    between atoms: _283  and  _284
REMARK  111  A    between atoms: _293  and  _295
REMARK  112  A    between atoms: _295  and  _296
REMARK  113  A    between atoms: _295  and  _298
REMARK  114  A    between atoms: _298  and  _299
REMARK  115  A    between atoms: _299  and  _300
REMARK  116  A    between atoms: _303  and  _305
REMARK  117  A    between atoms: _305  and  _306
REMARK  118  A    between atoms: _305  and  _308
REMARK  119  A    between atoms: _308  and  _309
REMARK  120  A    between atoms: _312  and  _314
REMARK  121  A    between atoms: _314  and  _315
REMARK  122  A    between atoms: _314  and  _317
REMARK  123  A    between atoms: _317  and  _318
REMARK  124  A    between atoms: _323  and  _324
REMARK  125  A    between atoms: _326  and  _328
REMARK  126  A    between atoms: _328  and  _329
REMARK  127  A    between atoms: _328  and  _331
REMARK  128  A    between atoms: _331  and  _332
REMARK  129  A    between atoms: _332  and  _333
REMARK  130  A    between atoms: _333  and  _334
REMARK  131  A    between atoms: _334  and  _335
REMARK  132  A    between atoms: _339  and  _341
REMARK  133  A    between atoms: _341  and  _342
REMARK  134  A    between atoms: _341  and  _344
REMARK  135  A    between atoms: _344  and  _345
REMARK  136  A    between atoms: _345  and  _346
REMARK  137  A    between atoms: _349  and  _351
REMARK  138  A    between atoms: _351  and  _352
REMARK  139  A    between atoms: _351  and  _354
REMARK  140  A    between atoms: _354  and  _355
REMARK  141  A    between atoms: _361  and  _363
REMARK  142  A    between atoms: _363  and  _364
REMARK  143  A    between atoms: _363  and  _366
REMARK  144  A    between atoms: _366  and  _367
REMARK  145  A    between atoms: _372  and  _374
REMARK  146  A    between atoms: _374  and  _375
REMARK  147  A    between atoms: _374  and  _377
REMARK  148  A    between atoms: _377  and  _378
REMARK  149  A    between atoms: _383  and  _385
REMARK  150  A    between atoms: _385  and  _386
REMARK  151  A    between atoms: _385  and  _388
REMARK  152  A    between atoms: _388  and  _389
REMARK  153  A    between atoms: _399  and  _401
REMARK  154  A    between atoms: _401  and  _402
REMARK  155  A    between atoms: _401  and  _404
REMARK  156  A    between atoms: _404  and  _405
REMARK  157  A    between atoms: _405  and  _406
REMARK  158  A    between atoms: _411  and  _413
REMARK  159  A    between atoms: _413  and  _414
REMARK  160  A    between atoms: _413  and  _416
REMARK  161  A    between atoms: _416  and  _417
REMARK  162  A    between atoms: _422  and  _424
REMARK  163  A    between atoms: _424  and  _425
REMARK  164  A    between atoms: _424  and  _427
REMARK  165  A    between atoms: _427  and  _428
REMARK  166  A    between atoms: _431  and  _433
REMARK  167  A    between atoms: _433  and  _434
REMARK  168  A    between atoms: _433  and  _436
REMARK  169  A    between atoms: _436  and  _437
REMARK  170  A    between atoms: _440  and  _442
REMARK  171  A    between atoms: _442  and  _443
REMARK  172  A    between atoms: _445  and  _447
REMARK  173  A    between atoms: _447  and  _448
REMARK  174  A    between atoms: _447  and  _450
REMARK  175  A    between atoms: _450  and  _451
REMARK  176  A    between atoms: _461  and  _463
REMARK  177  A    between atoms: _463  and  _464
REMARK  178  A    between atoms: _463  and  _466
REMARK  179  A    between atoms: _466  and  _467
REMARK  180  A    between atoms: _467  and  _468
REMARK                            x       y       z     vdW  Elec       q    Type
REMARK                         _______ _______ _______ _____ _____    ______ ____
ROOT
ATOM      1  C   LYS A   1       6.380  36.427  79.576  0.00  0.00    +0.238 C 
ATOM      2  N   GLU A   2       5.857  36.807  80.733  0.00  0.00    -0.298 N 
ATOM      3  H   GLU A   2       5.182  37.598  80.766  0.00  0.00    +0.150 HD
ATOM      4  O   LYS A   1       7.077  35.394  79.444  0.00  0.00    -0.274 OA
ENDROOT
BRANCH   1   5
ATOM      5  CA  LYS A   1       6.134  37.316  78.382  0.00  0.00    +0.145 C 
BRANCH   5   6
ATOM      6  N   LYS A   1       5.759  36.511  77.246  0.00  0.00    -0.238 NA
ATOM      7  H   LYS A   1       6.287  36.625  76.358  0.00  0.00    +0.142 HD
ENDBRANCH   5   6
BRANCH   5   8
ATOM      8  CB  LYS A   1       5.102  38.430  78.626  0.00  0.00    +0.026 C 
BRANCH   8   9
ATOM      9  CG  LYS A   1       5.186  39.565  77.570  0.00  0.00    -0.000 C 
BRANCH   9  10
ATOM     10  CD  LYS A   1       6.377  40.524  77.852  0.00  0.00    -0.024 C 
BRANCH  10  11
ATOM     11  CE  LYS A   1       6.003  41.518  78.965  0.00  0.00    -0.086 C 
BRANCH  11  12
ATOM     12  NZ  LYS A   1       6.834  42.779  78.959  0.00  0.00    +0.380 N 
ATOM     13  HZ1 LYS A   1       6.526  43.399  79.735  0.00  0.00    -0.089 HD
ATOM     14  HZ2 LYS A   1       7.836  42.533  79.087  0.00  0.00    -0.089 HD
ATOM     15  HZ3 LYS A   1       6.710  43.270  78.051  0.00  0.00    -0.089 HD
ENDBRANCH  11  12
ENDBRANCH  10  11
ENDBRANCH   9  10
ENDBRANCH   8   9
ENDBRANCH   5   8
ENDBRANCH   1   5
BRANCH   2  16
ATOM     16  CA  GLU A   2       6.230  36.114  81.959  0.00  0.00    +0.137 C 
BRANCH  16  17
ATOM     17  C   GLU A   2       5.491  34.764  82.132  0.00  0.00    +0.227 C 
ATOM     18  O   GLU A   2       5.750  34.004  83.097  0.00  0.00    -0.286 OA
ENDBRANCH  16  17
BRANCH  16  19
ATOM     19  CB  GLU A   2       6.041  37.034  83.195  0.00  0.00    +0.039 C 
BRANCH  19  20
ATOM     20  CG  GLU A   2       7.188  38.058  83.388  0.00  0.00    +0.116 C 
BRANCH  20  21
ATOM     21  CD  GLU A   2       6.912  39.458  82.732  0.00  0.00    +0.365 C 
ATOM     22  OE2 GLU A   2       7.555  40.427  83.174  0.00  0.00    -0.246 OA
ATOM     23  OE1 GLU A   2       6.094  39.593  81.766  0.00  0.00    -0.246 OA
ENDBRANCH  20  21
ENDBRANCH  19  20
ENDBRANCH  16  19
ENDBRANCH   2  16
TORSDOF 12
REMARK  Name = ../refined-set-2016/3qfy/3qfy_pocket.pdb
REMARK  180 active torsions:
REMARK  status: ('A' for Active; 'I' for Inactive)
REMARK    1  A    between atoms: _1  and  _3
REMARK    2  A    between atoms: _3  and  _4
REMARK    3  A    between atoms: _3  and  _6
REMARK    4  A    between atoms: _6  and  _7
REMARK    5  A    between atoms: _7  and  _8
REMARK    6  A    between atoms: _8  and  _9
REMARK    7  A    between atoms: _18  and  _20
REMARK    8  A    between atoms: _20  and  _21
REMARK    9  A    between atoms: _20  and  _23
REMARK   10  A    between atoms: _23  and  _24
REMARK   11  A    between atoms: _24  and  _25
REMARK   12  A    between atoms: _28  and  _30
REMARK   13  A    between atoms: _30  and  _31
REMARK   14  A    between atoms: _30  and  _33
REMARK   15  A    between atoms: _33  and  _34
REMARK   16  A    between atoms: _34  and  _35
REMARK   17  A    between atoms: _35  and  _36
REMARK   18  A    between atoms: _45  and  _47
REMARK   19  A    between atoms: _47  and  _48
REMARK   20  A    between atoms: _50  and  _52
REMARK   21  A    between atoms: _52  and  _53
REMARK   22  A    between atoms: _52  and  _55
REMARK   23  A    between atoms: _55  and  _56
REMARK   24  A    between atoms: _62  and  _64
REMARK   25  A    between atoms: _64  and  _65
REMARK   26  A    between atoms: _64  and  _67
REMARK   27  A    between atoms: _67  and  _68
REMARK   28  A    between atoms: _68  and  _69
REMARK   29  A    between atoms: _69  and  _70
REMARK   30  A    between atoms: _79  and  _81
REMARK   31  A    between atoms: _81  and  _82
REMARK   32  A    between atoms: _81  and  _84
REMARK   33  A    between atoms: _84  and  _85
REMARK   34  A    between atoms: _88  and  _90
REMARK   35  A    between atoms: _90  and  _91
REMARK   36  A    between atoms: _90  and  _93
REMARK   37  A    between atoms: _93  and  _94
REMARK   38  A    between atoms: _96  and  _98
REMARK   39  A    between atoms: _98  and  _99
REMARK   40  A    between atoms: _98  and  _101
REMARK   41  A    between atoms: _101  and  _102
REMARK   42  A    between atoms: _102  and  _103
REMARK   43  A    between atoms: _108  and  _110
REMARK   44  A    between atoms: _110  and  _111
REMARK   45  A    between atoms: _110  and  _113
REMARK   46  A    between atoms: _113  and  _114
REMARK   47  A    between atoms: _119  and  _121
REMARK   48  A    between atoms: _121  and  _122
REMARK   49  A    between atoms: _121  and  _124
REMARK   50  A    between atoms: _124  and  _125
REMARK   51  A    between atoms: _128  and  _130
REMARK   52  A    between atoms: _130  and  _131
REMARK   53  A    between atoms: _130  and  _133
REMARK   54  A    between atoms: _133  and  _134
REMARK   55  A    between atoms: _140  and  _142
REMARK   56  A    between atoms: _142  and  _143
REMARK   57  A    between atoms: _142  and  _145
REMARK   58  A    between atoms: _145  and  _146
REMARK   59  A    between atoms: _149  and  _151
REMARK   60  A    between atoms: _151  and  _152
REMARK   61  A    between atoms: _151  and  _154
REMARK   62  A    between atoms: _154  and  _155
REMARK   63  A    between atoms: _158  and  _160
REMARK   64  A    between atoms: _160  and  _161
REMARK   65  A    between atoms: _160  and  _163
REMARK   66  A    between atoms: _163  and  _164
REMARK   67  A    between atoms: _174  and  _176
REMARK   68  A    between atoms: _176  and  _177
REMARK   69  A    between atoms: _180  and  _182
REMARK   70  A    between atoms: _182  and  _183
REMARK   71  A    between atoms: _182  and  _185
REMARK   72  A    between atoms: _185  and  _186
REMARK   73  A    between atoms: _189  and  _191
REMARK   74  A    between atoms: _191  and  _192
REMARK   75  A    between atoms: _191  and  _194
REMARK   76  A    between atoms: _194  and  _195
REMARK   77  A    between atoms: _205  and  _207
REMARK   78  A    between atoms: _207  and  _208
REMARK   79  A    between atoms: _207  and  _210
REMARK   80  A    between atoms: _210  and  _211
REMARK   81  A    between atoms: _216  and  _218
REMARK   82  A    between atoms: _218  and  _219
REMARK   83  A    between atoms: _218  and  _221
REMARK   84  A    between atoms: _221  and  _222
REMARK   85  A    between atoms: _225  and  _227
REMARK   86  A    between atoms: _227  and  _228
REMARK   87  A    between atoms: _227  and  _230
REMARK   88  A    between atoms: _232  and  _234
REMARK   89  A    between atoms: _234  and  _235
REMARK   90  A    between atoms: _234  and  _237
REMARK   91  A    between atoms: _237  and  _238
REMARK   92  A    between atoms: _241  and  _243
REMARK   93  A    between atoms: _243  and  _244
REMARK   94  A    between atoms: _243  and  _246
REMARK   95  A    between atoms: _246  and  _247
REMARK   96  A    between atoms: _252  and  _254
REMARK   97  A    between atoms: _254  and  _255
REMARK   98  A    between atoms: _254  and  _257
REMARK   99  A    between atoms: _257  and  _258
REMARK  100  A    between atoms: _258  and  _259
REMARK  101  A    between atoms: _264  and  _266
REMARK  102  A    between atoms: _266  and  _267
REMARK  103  A    between atoms: _266  and  _269
REMARK  104  A    between atoms: _269  and  _270
REMARK  105  A    between atoms: _276  and  _278
REMARK  106  A    between atoms: _278  and  _279
REMARK  107  A    between atoms: _278  and  _281
REMARK  108  A    between atoms: _281  and  _282
REMARK  109  A    between atoms: _282  and  _283
REMARK  110  A    between atoms: _283  and  _284
REMARK  111  A    between atoms: _293  and  _295
REMARK  112  A    between atoms: _295  and  _296
REMARK  113  A    between atoms: _295  and  _298
REMARK  114  A    between atoms: _298  and  _299
REMARK  115  A    between atoms: _299  and  _300
REMARK  116  A    between atoms: _303  and  _305
REMARK  117  A    between atoms: _305  and  _306
REMARK  118  A    between atoms: _305  and  _308
REMARK  119  A    between atoms: _308  and  _309
REMARK  120  A    between atoms: _312  and  _314
REMARK  121  A    between atoms: _314  and  _315
REMARK  122  A    between atoms: _314  and  _317
REMARK  123  A    between atoms: _317  and  _318
REMARK  124  A    between atoms: _323  and  _324
REMARK  125  A    between atoms: _326  and  _328
REMARK  126  A    between atoms: _328  and  _329
REMARK  127  A    between atoms: _328  and  _331
REMARK  128  A    between atoms: _331  and  _332
REMARK  129  A    between atoms: _332  and  _333
REMARK  130  A    between atoms: _333  and  _334
REMARK  131  A    between atoms: _334  and  _335
REMARK  132  A    between atoms: _339  and  _341
REMARK  133  A    between atoms: _341  and  _342
REMARK  134  A    between atoms: _341  and  _344
REMARK  135  A    between atoms: _344  and  _345
REMARK  136  A    between atoms: _345  and  _346
REMARK  137  A    between atoms: _349  and  _351
REMARK  138  A    between atoms: _351  and  _352
REMARK  139  A    between atoms: _351  and  _354
REMARK  140  A    between atoms: _354  and  _355
REMARK  141  A    between atoms: _361  and  _363
REMARK  142  A    between atoms: _363  and  _364
REMARK  143  A    between atoms: _363  and  _366
REMARK  144  A    between atoms: _366  and  _367
REMARK  145  A    between atoms: _372  and  _374
REMARK  146  A    between atoms: _374  and  _375
REMARK  147  A    between atoms: _374  and  _377
REMARK  148  A    between atoms: _377  and  _378
REMARK  149  A    between atoms: _383  and  _385
REMARK  150  A    between atoms: _385  and  _386
REMARK  151  A    between atoms: _385  and  _388
REMARK  152  A    between atoms: _388  and  _389
REMARK  153  A    between atoms: _399  and  _401
REMARK  154  A    between atoms: _401  and  _402
REMARK  155  A    between atoms: _401  and  _404
REMARK  156  A    between atoms: _404  and  _405
REMARK  157  A    between atoms: _405  and  _406
REMARK  158  A    between atoms: _411  and  _413
REMARK  159  A    between atoms: _413  and  _414
REMARK  160  A    between atoms: _413  and  _416
REMARK  161  A    between atoms: _416  and  _417
REMARK  162  A    between atoms: _422  and  _424
REMARK  163  A    between atoms: _424  and  _425
REMARK  164  A    between atoms: _424  and  _427
REMARK  165  A    between atoms: _427  and  _428
REMARK  166  A    between atoms: _431  and  _433
REMARK  167  A    between atoms: _433  and  _434
REMARK  168  A    between atoms: _433  and  _436
REMARK  169  A    between atoms: _436  and  _437
REMARK  170  A    between atoms: _440  and  _442
REMARK  171  A    between atoms: _442  and  _443
REMARK  172  A    between atoms: _445  and  _447
REMARK  173  A    between atoms: _447  and  _448
REMARK  174  A    between atoms: _447  and  _450
REMARK  175  A    between atoms: _450  and  _451
REMARK  176  A    between atoms: _461  and  _463
REMARK  177  A    between atoms: _463  and  _464
REMARK  178  A    between atoms: _463  and  _466
REMARK  179  A    between atoms: _466  and  _467
REMARK  180  A    between atoms: _467  and  _468
REMARK                            x       y       z     vdW  Elec       q    Type
REMARK                         _______ _______ _______ _____ _____    ______ ____
ROOT
ATOM      1  CB  PHE A   1      11.828  36.449  80.436  0.00  0.00    +0.051 C 
ENDROOT
BRANCH   1   2
ATOM      2  CG  PHE A   1      11.141  37.765  80.512  0.00  0.00    -0.020 A 
ATOM      3  CD2 PHE A   1      11.857  38.931  80.775  0.00  0.00    -0.004 A 
ATOM      4  CE2 PHE A   1      11.197  40.190  80.839  0.00  0.00    -0.000 A 
ATOM      5  CZ  PHE A   1       9.837  40.264  80.590  0.00  0.00    -0.000 A 
ATOM      6  CE1 PHE A   1       9.138  39.120  80.307  0.00  0.00    -0.000 A 
ATOM      7  CD1 PHE A   1       9.797  37.858  80.276  0.00  0.00    -0.004 A 
ENDBRANCH   1   2
BRANCH   1   8
ATOM      8  CA  PHE A   1      12.451  36.174  79.069  0.00  0.00    +0.137 C 
BRANCH   8   9
ATOM      9  N   PHE A   1      12.136  34.844  78.610  0.00  0.00    -0.239 NA
ATOM     10  H   PHE A   1      12.056  34.062  79.291  0.00  0.00    +0.142 HD
ENDBRANCH   8   9
BRANCH   8  11
ATOM     11  C   PHE A   1      13.959  36.222  79.129  0.00  0.00    +0.224 C 
ATOM     12  O   PHE A   1      14.553  35.752  80.087  0.00  0.00    -0.287 OA
ENDBRANCH   8  11
ENDBRANCH   1   8
TORSDOF 4
REMARK  Name = ../refined-set-2016/3qfy/3qfy_pocket.pdb
REMARK  180 active torsions:
REMARK  status: ('A' for Active; 'I' for Inactive)
REMARK    1  A    between atoms: _1  and  _3
REMARK    2  A    between atoms: _3  and  _4
REMARK    3  A    between atoms: _3  and  _6
REMARK    4  A    between atoms: _6  and  _7
REMARK    5  A    between atoms: _7  and  _8
REMARK    6  A    between atoms: _8  and  _9
REMARK    7  A    between atoms: _18  and  _20
REMARK    8  A    between atoms: _20  and  _21
REMARK    9  A    between atoms: _20  and  _23
REMARK   10  A    between atoms: _23  and  _24
REMARK   11  A    between atoms: _24  and  _25
REMARK   12  A    between atoms: _28  and  _30
REMARK   13  A    between atoms: _30  and  _31
REMARK   14  A    between atoms: _30  and  _33
REMARK   15  A    between atoms: _33  and  _34
REMARK   16  A    between atoms: _34  and  _35
REMARK   17  A    between atoms: _35  and  _36
REMARK   18  A    between atoms: _45  and  _47
REMARK   19  A    between atoms: _47  and  _48
REMARK   20  A    between atoms: _50  and  _52
REMARK   21  A    between atoms: _52  and  _53
REMARK   22  A    between atoms: _52  and  _55
REMARK   23  A    between atoms: _55  and  _56
REMARK   24  A    between atoms: _62  and  _64
REMARK   25  A    between atoms: _64  and  _65
REMARK   26  A    between atoms: _64  and  _67
REMARK   27  A    between atoms: _67  and  _68
REMARK   28  A    between atoms: _68  and  _69
REMARK   29  A    between atoms: _69  and  _70
REMARK   30  A    between atoms: _79  and  _81
REMARK   31  A    between atoms: _81  and  _82
REMARK   32  A    between atoms: _81  and  _84
REMARK   33  A    between atoms: _84  and  _85
REMARK   34  A    between atoms: _88  and  _90
REMARK   35  A    between atoms: _90  and  _91
REMARK   36  A    between atoms: _90  and  _93
REMARK   37  A    between atoms: _93  and  _94
REMARK   38  A    between atoms: _96  and  _98
REMARK   39  A    between atoms: _98  and  _99
REMARK   40  A    between atoms: _98  and  _101
REMARK   41  A    between atoms: _101  and  _102
REMARK   42  A    between atoms: _102  and  _103
REMARK   43  A    between atoms: _108  and  _110
REMARK   44  A    between atoms: _110  and  _111
REMARK   45  A    between atoms: _110  and  _113
REMARK   46  A    between atoms: _113  and  _114
REMARK   47  A    between atoms: _119  and  _121
REMARK   48  A    between atoms: _121  and  _122
REMARK   49  A    between atoms: _121  and  _124
REMARK   50  A    between atoms: _124  and  _125
REMARK   51  A    between atoms: _128  and  _130
REMARK   52  A    between atoms: _130  and  _131
REMARK   53  A    between atoms: _130  and  _133
REMARK   54  A    between atoms: _133  and  _134
REMARK   55  A    between atoms: _140  and  _142
REMARK   56  A    between atoms: _142  and  _143
REMARK   57  A    between atoms: _142  and  _145
REMARK   58  A    between atoms: _145  and  _146
REMARK   59  A    between atoms: _149  and  _151
REMARK   60  A    between atoms: _151  and  _152
REMARK   61  A    between atoms: _151  and  _154
REMARK   62  A    between atoms: _154  and  _155
REMARK   63  A    between atoms: _158  and  _160
REMARK   64  A    between atoms: _160  and  _161
REMARK   65  A    between atoms: _160  and  _163
REMARK   66  A    between atoms: _163  and  _164
REMARK   67  A    between atoms: _174  and  _176
REMARK   68  A    between atoms: _176  and  _177
REMARK   69  A    between atoms: _180  and  _182
REMARK   70  A    between atoms: _182  and  _183
REMARK   71  A    between atoms: _182  and  _185
REMARK   72  A    between atoms: _185  and  _186
REMARK   73  A    between atoms: _189  and  _191
REMARK   74  A    between atoms: _191  and  _192
REMARK   75  A    between atoms: _191  and  _194
REMARK   76  A    between atoms: _194  and  _195
REMARK   77  A    between atoms: _205  and  _207
REMARK   78  A    between atoms: _207  and  _208
REMARK   79  A    between atoms: _207  and  _210
REMARK   80  A    between atoms: _210  and  _211
REMARK   81  A    between atoms: _216  and  _218
REMARK   82  A    between atoms: _218  and  _219
REMARK   83  A    between atoms: _218  and  _221
REMARK   84  A    between atoms: _221  and  _222
REMARK   85  A    between atoms: _225  and  _227
REMARK   86  A    between atoms: _227  and  _228
REMARK   87  A    between atoms: _227  and  _230
REMARK   88  A    between atoms: _232  and  _234
REMARK   89  A    between atoms: _234  and  _235
REMARK   90  A    between atoms: _234  and  _237
REMARK   91  A    between atoms: _237  and  _238
REMARK   92  A    between atoms: _241  and  _243
REMARK   93  A    between atoms: _243  and  _244
REMARK   94  A    between atoms: _243  and  _246
REMARK   95  A    between atoms: _246  and  _247
REMARK   96  A    between atoms: _252  and  _254
REMARK   97  A    between atoms: _254  and  _255
REMARK   98  A    between atoms: _254  and  _257
REMARK   99  A    between atoms: _257  and  _258
REMARK  100  A    between atoms: _258  and  _259
REMARK  101  A    between atoms: _264  and  _266
REMARK  102  A    between atoms: _266  and  _267
REMARK  103  A    between atoms: _266  and  _269
REMARK  104  A    between atoms: _269  and  _270
REMARK  105  A    between atoms: _276  and  _278
REMARK  106  A    between atoms: _278  and  _279
REMARK  107  A    between atoms: _278  and  _281
REMARK  108  A    between atoms: _281  and  _282
REMARK  109  A    between atoms: _282  and  _283
REMARK  110  A    between atoms: _283  and  _284
REMARK  111  A    between atoms: _293  and  _295
REMARK  112  A    between atoms: _295  and  _296
REMARK  113  A    between atoms: _295  and  _298
REMARK  114  A    between atoms: _298  and  _299
REMARK  115  A    between atoms: _299  and  _300
REMARK  116  A    between atoms: _303  and  _305
REMARK  117  A    between atoms: _305  and  _306
REMARK  118  A    between atoms: _305  and  _308
REMARK  119  A    between atoms: _308  and  _309
REMARK  120  A    between atoms: _312  and  _314
REMARK  121  A    between atoms: _314  and  _315
REMARK  122  A    between atoms: _314  and  _317
REMARK  123  A    between atoms: _317  and  _318
REMARK  124  A    between atoms: _323  and  _324
REMARK  125  A    between atoms: _326  and  _328
REMARK  126  A    between atoms: _328  and  _329
REMARK  127  A    between atoms: _328  and  _331
REMARK  128  A    between atoms: _331  and  _332
REMARK  129  A    between atoms: _332  and  _333
REMARK  130  A    between atoms: _333  and  _334
REMARK  131  A    between atoms: _334  and  _335
REMARK  132  A    between atoms: _339  and  _341
REMARK  133  A    between atoms: _341  and  _342
REMARK  134  A    between atoms: _341  and  _344
REMARK  135  A    between atoms: _344  and  _345
REMARK  136  A    between atoms: _345  and  _346
REMARK  137  A    between atoms: _349  and  _351
REMARK  138  A    between atoms: _351  and  _352
REMARK  139  A    between atoms: _351  and  _354
REMARK  140  A    between atoms: _354  and  _355
REMARK  141  A    between atoms: _361  and  _363
REMARK  142  A    between atoms: _363  and  _364
REMARK  143  A    between atoms: _363  and  _366
REMARK  144  A    between atoms: _366  and  _367
REMARK  145  A    between atoms: _372  and  _374
REMARK  146  A    between atoms: _374  and  _375
REMARK  147  A    between atoms: _374  and  _377
REMARK  148  A    between atoms: _377  and  _378
REMARK  149  A    between atoms: _383  and  _385
REMARK  150  A    between atoms: _385  and  _386
REMARK  151  A    between atoms: _385  and  _388
REMARK  152  A    between atoms: _388  and  _389
REMARK  153  A    between atoms: _399  and  _401
REMARK  154  A    between atoms: _401  and  _402
REMARK  155  A    between atoms: _401  and  _404
REMARK  156  A    between atoms: _404  and  _405
REMARK  157  A    between atoms: _405  and  _406
REMARK  158  A    between atoms: _411  and  _413
REMARK  159  A    between atoms: _413  and  _414
REMARK  160  A    between atoms: _413  and  _416
REMARK  161  A    between atoms: _416  and  _417
REMARK  162  A    between atoms: _422  and  _424
REMARK  163  A    between atoms: _424  and  _425
REMARK  164  A    between atoms: _424  and  _427
REMARK  165  A    between atoms: _427  and  _428
REMARK  166  A    between atoms: _431  and  _433
REMARK  167  A    between atoms: _433  and  _434
REMARK  168  A    between atoms: _433  and  _436
REMARK  169  A    between atoms: _436  and  _437
REMARK  170  A    between atoms: _440  and  _442
REMARK  171  A    between atoms: _442  and  _443
REMARK  172  A    between atoms: _445  and  _447
REMARK  173  A    between atoms: _447  and  _448
REMARK  174  A    between atoms: _447  and  _450
REMARK  175  A    between atoms: _450  and  _451
REMARK  176  A    between atoms: _461  and  _463
REMARK  177  A    between atoms: _463  and  _464
REMARK  178  A    between atoms: _463  and  _466
REMARK  179  A    between atoms: _466  and  _467
REMARK  180  A    between atoms: _467  and  _468
REMARK                            x       y       z     vdW  Elec       q    Type
REMARK                         _______ _______ _______ _____ _____    ______ ____
ROOT
ATOM      1  C   HIS A   1      17.617  37.636  81.742  0.00  0.00    +0.239 C 
ATOM      2  O   HIS A   1      18.760  37.654  82.202  0.00  0.00    -0.274 OA
ATOM      3  N   ASN A   2      16.754  36.676  82.066  0.00  0.00    -0.298 N 
ATOM      4  H   ASN A   2      15.788  36.684  81.681  0.00  0.00    +0.150 HD
ENDROOT
BRANCH   1   5
ATOM      5  CA  HIS A   1      17.164  38.716  80.729  0.00  0.00    +0.151 C 
BRANCH   5   6
ATOM      6  N   HIS A   1      16.390  38.077  79.630  0.00  0.00    -0.238 NA
ATOM      7  H   HIS A   1      15.439  38.439  79.416  0.00  0.00    +0.142 HD
ENDBRANCH   5   6
BRANCH   5   8
ATOM      8  CB  HIS A   1      16.303  39.817  81.414  0.00  0.00    +0.074 C 
BRANCH   8   9
ATOM      9  CG  HIS A   1      16.930  40.456  82.610  0.00  0.00    +0.082 A 
ATOM     10  CD2 HIS A   1      17.360  39.933  83.788  0.00  0.00    +0.115 A 
ATOM     11  NE2 HIS A   1      17.821  40.978  84.555  0.00  0.00    -0.221 NA
ATOM     12  CE1 HIS A   1      17.683  42.104  83.871  0.00  0.00    +0.199 A 
ATOM     13  ND1 HIS A   1      17.129  41.820  82.705  0.00  0.00    -0.227 NA
ENDBRANCH   8   9
ENDBRANCH   5   8
ENDBRANCH   1   5
BRANCH   3  14
ATOM     14  CA  ASN A   2      17.186  35.596  82.982  0.00  0.00    +0.146 C 
BRANCH  14  15
ATOM     15  C   ASN A   2      18.001  34.398  82.375  0.00  0.00    +0.227 C 
ATOM     16  O   ASN A   2      18.466  33.505  83.131  0.00  0.00    -0.286 OA
ENDBRANCH  14  15
BRANCH  14  17
ATOM     17  CB  ASN A   2      15.978  35.082  83.795  0.00  0.00    +0.112 C 
BRANCH  17  18
ATOM     18  CG  ASN A   2      14.913  34.457  82.932  0.00  0.00    +0.222 C 
ATOM     19  ND2 ASN A   2      13.669  34.806  83.203  0.00  0.00    -0.329 N 
ATOM     20 HD21 ASN A   2      13.476  35.508  83.945  0.00  0.00    +0.145 HD
ATOM     21 HD22 ASN A   2      12.882  34.379  82.674  0.00  0.00    +0.145 HD
ATOM     22  OD1 ASN A   2      15.186  33.636  82.068  0.00  0.00    -0.275 OA
ENDBRANCH  17  18
ENDBRANCH  14  17
ENDBRANCH   3  14
TORSDOF 8
REMARK  Name = ../refined-set-2016/3qfy/3qfy_pocket.pdb
REMARK  180 active torsions:
REMARK  status: ('A' for Active; 'I' for Inactive)
REMARK    1  A    between atoms: _1  and  _3
REMARK    2  A    between atoms: _3  and  _4
REMARK    3  A    between atoms: _3  and  _6
REMARK    4  A    between atoms: _6  and  _7
REMARK    5  A    between atoms: _7  and  _8
REMARK    6  A    between atoms: _8  and  _9
REMARK    7  A    between atoms: _18  and  _20
REMARK    8  A    between atoms: _20  and  _21
REMARK    9  A    between atoms: _20  and  _23
REMARK   10  A    between atoms: _23  and  _24
REMARK   11  A    between atoms: _24  and  _25
REMARK   12  A    between atoms: _28  and  _30
REMARK   13  A    between atoms: _30  and  _31
REMARK   14  A    between atoms: _30  and  _33
REMARK   15  A    between atoms: _33  and  _34
REMARK   16  A    between atoms: _34  and  _35
REMARK   17  A    between atoms: _35  and  _36
REMARK   18  A    between atoms: _45  and  _47
REMARK   19  A    between atoms: _47  and  _48
REMARK   20  A    between atoms: _50  and  _52
REMARK   21  A    between atoms: _52  and  _53
REMARK   22  A    between atoms: _52  and  _55
REMARK   23  A    between atoms: _55  and  _56
REMARK   24  A    between atoms: _62  and  _64
REMARK   25  A    between atoms: _64  and  _65
REMARK   26  A    between atoms: _64  and  _67
REMARK   27  A    between atoms: _67  and  _68
REMARK   28  A    between atoms: _68  and  _69
REMARK   29  A    between atoms: _69  and  _70
REMARK   30  A    between atoms: _79  and  _81
REMARK   31  A    between atoms: _81  and  _82
REMARK   32  A    between atoms: _81  and  _84
REMARK   33  A    between atoms: _84  and  _85
REMARK   34  A    between atoms: _88  and  _90
REMARK   35  A    between atoms: _90  and  _91
REMARK   36  A    between atoms: _90  and  _93
REMARK   37  A    between atoms: _93  and  _94
REMARK   38  A    between atoms: _96  and  _98
REMARK   39  A    between atoms: _98  and  _99
REMARK   40  A    between atoms: _98  and  _101
REMARK   41  A    between atoms: _101  and  _102
REMARK   42  A    between atoms: _102  and  _103
REMARK   43  A    between atoms: _108  and  _110
REMARK   44  A    between atoms: _110  and  _111
REMARK   45  A    between atoms: _110  and  _113
REMARK   46  A    between atoms: _113  and  _114
REMARK   47  A    between atoms: _119  and  _121
REMARK   48  A    between atoms: _121  and  _122
REMARK   49  A    between atoms: _121  and  _124
REMARK   50  A    between atoms: _124  and  _125
REMARK   51  A    between atoms: _128  and  _130
REMARK   52  A    between atoms: _130  and  _131
REMARK   53  A    between atoms: _130  and  _133
REMARK   54  A    between atoms: _133  and  _134
REMARK   55  A    between atoms: _140  and  _142
REMARK   56  A    between atoms: _142  and  _143
REMARK   57  A    between atoms: _142  and  _145
REMARK   58  A    between atoms: _145  and  _146
REMARK   59  A    between atoms: _149  and  _151
REMARK   60  A    between atoms: _151  and  _152
REMARK   61  A    between atoms: _151  and  _154
REMARK   62  A    between atoms: _154  and  _155
REMARK   63  A    between atoms: _158  and  _160
REMARK   64  A    between atoms: _160  and  _161
REMARK   65  A    between atoms: _160  and  _163
REMARK   66  A    between atoms: _163  and  _164
REMARK   67  A    between atoms: _174  and  _176
REMARK   68  A    between atoms: _176  and  _177
REMARK   69  A    between atoms: _180  and  _182
REMARK   70  A    between atoms: _182  and  _183
REMARK   71  A    between atoms: _182  and  _185
REMARK   72  A    between atoms: _185  and  _186
REMARK   73  A    between atoms: _189  and  _191
REMARK   74  A    between atoms: _191  and  _192
REMARK   75  A    between atoms: _191  and  _194
REMARK   76  A    between atoms: _194  and  _195
REMARK   77  A    between atoms: _205  and  _207
REMARK   78  A    between atoms: _207  and  _208
REMARK   79  A    between atoms: _207  and  _210
REMARK   80  A    between atoms: _210  and  _211
REMARK   81  A    between atoms: _216  and  _218
REMARK   82  A    between atoms: _218  and  _219
REMARK   83  A    between atoms: _218  and  _221
REMARK   84  A    between atoms: _221  and  _222
REMARK   85  A    between atoms: _225  and  _227
REMARK   86  A    between atoms: _227  and  _228
REMARK   87  A    between atoms: _227  and  _230
REMARK   88  A    between atoms: _232  and  _234
REMARK   89  A    between atoms: _234  and  _235
REMARK   90  A    between atoms: _234  and  _237
REMARK   91  A    between atoms: _237  and  _238
REMARK   92  A    between atoms: _241  and  _243
REMARK   93  A    between atoms: _243  and  _244
REMARK   94  A    between atoms: _243  and  _246
REMARK   95  A    between atoms: _246  and  _247
REMARK   96  A    between atoms: _252  and  _254
REMARK   97  A    between atoms: _254  and  _255
REMARK   98  A    between atoms: _254  and  _257
REMARK   99  A    between atoms: _257  and  _258
REMARK  100  A    between atoms: _258  and  _259
REMARK  101  A    between atoms: _264  and  _266
REMARK  102  A    between atoms: _266  and  _267
REMARK  103  A    between atoms: _266  and  _269
REMARK  104  A    between atoms: _269  and  _270
REMARK  105  A    between atoms: _276  and  _278
REMARK  106  A    between atoms: _278  and  _279
REMARK  107  A    between atoms: _278  and  _281
REMARK  108  A    between atoms: _281  and  _282
REMARK  109  A    between atoms: _282  and  _283
REMARK  110  A    between atoms: _283  and  _284
REMARK  111  A    between atoms: _293  and  _295
REMARK  112  A    between atoms: _295  and  _296
REMARK  113  A    between atoms: _295  and  _298
REMARK  114  A    between atoms: _298  and  _299
REMARK  115  A    between atoms: _299  and  _300
REMARK  116  A    between atoms: _303  and  _305
REMARK  117  A    between atoms: _305  and  _306
REMARK  118  A    between atoms: _305  and  _308
REMARK  119  A    between atoms: _308  and  _309
REMARK  120  A    between atoms: _312  and  _314
REMARK  121  A    between atoms: _314  and  _315
REMARK  122  A    between atoms: _314  and  _317
REMARK  123  A    between atoms: _317  and  _318
REMARK  124  A    between atoms: _323  and  _324
REMARK  125  A    between atoms: _326  and  _328
REMARK  126  A    between atoms: _328  and  _329
REMARK  127  A    between atoms: _328  and  _331
REMARK  128  A    between atoms: _331  and  _332
REMARK  129  A    between atoms: _332  and  _333
REMARK  130  A    between atoms: _333  and  _334
REMARK  131  A    between atoms: _334  and  _335
REMARK  132  A    between atoms: _339  and  _341
REMARK  133  A    between atoms: _341  and  _342
REMARK  134  A    between atoms: _341  and  _344
REMARK  135  A    between atoms: _344  and  _345
REMARK  136  A    between atoms: _345  and  _346
REMARK  137  A    between atoms: _349  and  _351
REMARK  138  A    between atoms: _351  and  _352
REMARK  139  A    between atoms: _351  and  _354
REMARK  140  A    between atoms: _354  and  _355
REMARK  141  A    between atoms: _361  and  _363
REMARK  142  A    between atoms: _363  and  _364
REMARK  143  A    between atoms: _363  and  _366
REMARK  144  A    between atoms: _366  and  _367
REMARK  145  A    between atoms: _372  and  _374
REMARK  146  A    between atoms: _374  and  _375
REMARK  147  A    between atoms: _374  and  _377
REMARK  148  A    between atoms: _377  and  _378
REMARK  149  A    between atoms: _383  and  _385
REMARK  150  A    between atoms: _385  and  _386
REMARK  151  A    between atoms: _385  and  _388
REMARK  152  A    between atoms: _388  and  _389
REMARK  153  A    between atoms: _399  and  _401
REMARK  154  A    between atoms: _401  and  _402
REMARK  155  A    between atoms: _401  and  _404
REMARK  156  A    between atoms: _404  and  _405
REMARK  157  A    between atoms: _405  and  _406
REMARK  158  A    between atoms: _411  and  _413
REMARK  159  A    between atoms: _413  and  _414
REMARK  160  A    between atoms: _413  and  _416
REMARK  161  A    between atoms: _416  and  _417
REMARK  162  A    between atoms: _422  and  _424
REMARK  163  A    between atoms: _424  and  _425
REMARK  164  A    between atoms: _424  and  _427
REMARK  165  A    between atoms: _427  and  _428
REMARK  166  A    between atoms: _431  and  _433
REMARK  167  A    between atoms: _433  and  _434
REMARK  168  A    between atoms: _433  and  _436
REMARK  169  A    between atoms: _436  and  _437
REMARK  170  A    between atoms: _440  and  _442
REMARK  171  A    between atoms: _442  and  _443
REMARK  172  A    between atoms: _445  and  _447
REMARK  173  A    between atoms: _447  and  _448
REMARK  174  A    between atoms: _447  and  _450
REMARK  175  A    between atoms: _450  and  _451
REMARK  176  A    between atoms: _461  and  _463
REMARK  177  A    between atoms: _463  and  _464
REMARK  178  A    between atoms: _463  and  _466
REMARK  179  A    between atoms: _466  and  _467
REMARK  180  A    between atoms: _467  and  _468
REMARK                            x       y       z     vdW  Elec       q    Type
REMARK                         _______ _______ _______ _____ _____    ______ ____
ROOT
ATOM      1  CG  TRP A   1      20.179  35.346  85.966  0.00  0.00    -0.002 A 
ATOM      2  CD2 TRP A   1      18.950  35.878  86.475  0.00  0.00    +0.013 A 
ATOM      3  CE3 TRP A   1      17.751  35.295  86.924  0.00  0.00    +0.001 A 
ATOM      4  CZ3 TRP A   1      16.741  36.115  87.342  0.00  0.00    +0.000 A 
ATOM      5  CH2 TRP A   1      16.902  37.537  87.352  0.00  0.00    +0.001 A 
ATOM      6  CZ2 TRP A   1      18.052  38.122  86.918  0.00  0.00    +0.017 A 
ATOM      7  CE2 TRP A   1      19.079  37.280  86.493  0.00  0.00    +0.056 A 
ATOM      8  NE1 TRP A   1      20.335  37.587  86.030  0.00  0.00    -0.352 N 
ATOM      9  HE1 TRP A   1      20.727  38.545  85.929  0.00  0.00    +0.166 HD
ATOM     10  CD1 TRP A   1      20.986  36.418  85.722  0.00  0.00    +0.068 A 
ENDROOT
BRANCH   1  11
ATOM     11  CB  TRP A   1      20.526  33.856  85.792  0.00  0.00    +0.053 C 
BRANCH  11  12
ATOM     12  CA  TRP A   1      21.777  33.566  84.974  0.00  0.00    +0.137 C 
BRANCH  12  13
ATOM     13  N   TRP A   1      21.641  34.124  83.632  0.00  0.00    -0.239 NA
ATOM     14  H   TRP A   1      20.722  34.486  83.306  0.00  0.00    +0.142 HD
ENDBRANCH  12  13
BRANCH  12  15
ATOM     15  C   TRP A   1      22.065  32.041  84.957  0.00  0.00    +0.224 C 
ATOM     16  O   TRP A   1      22.917  31.504  85.749  0.00  0.00    -0.287 OA
ENDBRANCH  12  15
ENDBRANCH  11  12
ENDBRANCH   1  11
TORSDOF 4
REMARK  Name = ../refined-set-2016/3qfy/3qfy_pocket.pdb
REMARK  180 active torsions:
REMARK  status: ('A' for Active; 'I' for Inactive)
REMARK    1  A    between atoms: _1  and  _3
REMARK    2  A    between atoms: _3  and  _4
REMARK    3  A    between atoms: _3  and  _6
REMARK    4  A    between atoms: _6  and  _7
REMARK    5  A    between atoms: _7  and  _8
REMARK    6  A    between atoms: _8  and  _9
REMARK    7  A    between atoms: _18  and  _20
REMARK    8  A    between atoms: _20  and  _21
REMARK    9  A    between atoms: _20  and  _23
REMARK   10  A    between atoms: _23  and  _24
REMARK   11  A    between atoms: _24  and  _25
REMARK   12  A    between atoms: _28  and  _30
REMARK   13  A    between atoms: _30  and  _31
REMARK   14  A    between atoms: _30  and  _33
REMARK   15  A    between atoms: _33  and  _34
REMARK   16  A    between atoms: _34  and  _35
REMARK   17  A    between atoms: _35  and  _36
REMARK   18  A    between atoms: _45  and  _47
REMARK   19  A    between atoms: _47  and  _48
REMARK   20  A    between atoms: _50  and  _52
REMARK   21  A    between atoms: _52  and  _53
REMARK   22  A    between atoms: _52  and  _55
REMARK   23  A    between atoms: _55  and  _56
REMARK   24  A    between atoms: _62  and  _64
REMARK   25  A    between atoms: _64  and  _65
REMARK   26  A    between atoms: _64  and  _67
REMARK   27  A    between atoms: _67  and  _68
REMARK   28  A    between atoms: _68  and  _69
REMARK   29  A    between atoms: _69  and  _70
REMARK   30  A    between atoms: _79  and  _81
REMARK   31  A    between atoms: _81  and  _82
REMARK   32  A    between atoms: _81  and  _84
REMARK   33  A    between atoms: _84  and  _85
REMARK   34  A    between atoms: _88  and  _90
REMARK   35  A    between atoms: _90  and  _91
REMARK   36  A    between atoms: _90  and  _93
REMARK   37  A    between atoms: _93  and  _94
REMARK   38  A    between atoms: _96  and  _98
REMARK   39  A    between atoms: _98  and  _99
REMARK   40  A    between atoms: _98  and  _101
REMARK   41  A    between atoms: _101  and  _102
REMARK   42  A    between atoms: _102  and  _103
REMARK   43  A    between atoms: _108  and  _110
REMARK   44  A    between atoms: _110  and  _111
REMARK   45  A    between atoms: _110  and  _113
REMARK   46  A    between atoms: _113  and  _114
REMARK   47  A    between atoms: _119  and  _121
REMARK   48  A    between atoms: _121  and  _122
REMARK   49  A    between atoms: _121  and  _124
REMARK   50  A    between atoms: _124  and  _125
REMARK   51  A    between atoms: _128  and  _130
REMARK   52  A    between atoms: _130  and  _131
REMARK   53  A    between atoms: _130  and  _133
REMARK   54  A    between atoms: _133  and  _134
REMARK   55  A    between atoms: _140  and  _142
REMARK   56  A    between atoms: _142  and  _143
REMARK   57  A    between atoms: _142  and  _145
REMARK   58  A    between atoms: _145  and  _146
REMARK   59  A    between atoms: _149  and  _151
REMARK   60  A    between atoms: _151  and  _152
REMARK   61  A    between atoms: _151  and  _154
REMARK   62  A    between atoms: _154  and  _155
REMARK   63  A    between atoms: _158  and  _160
REMARK   64  A    between atoms: _160  and  _161
REMARK   65  A    between atoms: _160  and  _163
REMARK   66  A    between atoms: _163  and  _164
REMARK   67  A    between atoms: _174  and  _176
REMARK   68  A    between atoms: _176  and  _177
REMARK   69  A    between atoms: _180  and  _182
REMARK   70  A    between atoms: _182  and  _183
REMARK   71  A    between atoms: _182  and  _185
REMARK   72  A    between atoms: _185  and  _186
REMARK   73  A    between atoms: _189  and  _191
REMARK   74  A    between atoms: _191  and  _192
REMARK   75  A    between atoms: _191  and  _194
REMARK   76  A    between atoms: _194  and  _195
REMARK   77  A    between atoms: _205  and  _207
REMARK   78  A    between atoms: _207  and  _208
REMARK   79  A    between atoms: _207  and  _210
REMARK   80  A    between atoms: _210  and  _211
REMARK   81  A    between atoms: _216  and  _218
REMARK   82  A    between atoms: _218  and  _219
REMARK   83  A    between atoms: _218  and  _221
REMARK   84  A    between atoms: _221  and  _222
REMARK   85  A    between atoms: _225  and  _227
REMARK   86  A    between atoms: _227  and  _228
REMARK   87  A    between atoms: _227  and  _230
REMARK   88  A    between atoms: _232  and  _234
REMARK   89  A    between atoms: _234  and  _235
REMARK   90  A    between atoms: _234  and  _237
REMARK   91  A    between atoms: _237  and  _238
REMARK   92  A    between atoms: _241  and  _243
REMARK   93  A    between atoms: _243  and  _244
REMARK   94  A    between atoms: _243  and  _246
REMARK   95  A    between atoms: _246  and  _247
REMARK   96  A    between atoms: _252  and  _254
REMARK   97  A    between atoms: _254  and  _255
REMARK   98  A    between atoms: _254  and  _257
REMARK   99  A    between atoms: _257  and  _258
REMARK  100  A    between atoms: _258  and  _259
REMARK  101  A    between atoms: _264  and  _266
REMARK  102  A    between atoms: _266  and  _267
REMARK  103  A    between atoms: _266  and  _269
REMARK  104  A    between atoms: _269  and  _270
REMARK  105  A    between atoms: _276  and  _278
REMARK  106  A    between atoms: _278  and  _279
REMARK  107  A    between atoms: _278  and  _281
REMARK  108  A    between atoms: _281  and  _282
REMARK  109  A    between atoms: _282  and  _283
REMARK  110  A    between atoms: _283  and  _284
REMARK  111  A    between atoms: _293  and  _295
REMARK  112  A    between atoms: _295  and  _296
REMARK  113  A    between atoms: _295  and  _298
REMARK  114  A    between atoms: _298  and  _299
REMARK  115  A    between atoms: _299  and  _300
REMARK  116  A    between atoms: _303  and  _305
REMARK  117  A    between atoms: _305  and  _306
REMARK  118  A    between atoms: _305  and  _308
REMARK  119  A    between atoms: _308  and  _309
REMARK  120  A    between atoms: _312  and  _314
REMARK  121  A    between atoms: _314  and  _315
REMARK  122  A    between atoms: _314  and  _317
REMARK  123  A    between atoms: _317  and  _318
REMARK  124  A    between atoms: _323  and  _324
REMARK  125  A    between atoms: _326  and  _328
REMARK  126  A    between atoms: _328  and  _329
REMARK  127  A    between atoms: _328  and  _331
REMARK  128  A    between atoms: _331  and  _332
REMARK  129  A    between atoms: _332  and  _333
REMARK  130  A    between atoms: _333  and  _334
REMARK  131  A    between atoms: _334  and  _335
REMARK  132  A    between atoms: _339  and  _341
REMARK  133  A    between atoms: _341  and  _342
REMARK  134  A    between atoms: _341  and  _344
REMARK  135  A    between atoms: _344  and  _345
REMARK  136  A    between atoms: _345  and  _346
REMARK  137  A    between atoms: _349  and  _351
REMARK  138  A    between atoms: _351  and  _352
REMARK  139  A    between atoms: _351  and  _354
REMARK  140  A    between atoms: _354  and  _355
REMARK  141  A    between atoms: _361  and  _363
REMARK  142  A    between atoms: _363  and  _364
REMARK  143  A    between atoms: _363  and  _366
REMARK  144  A    between atoms: _366  and  _367
REMARK  145  A    between atoms: _372  and  _374
REMARK  146  A    between atoms: _374  and  _375
REMARK  147  A    between atoms: _374  and  _377
REMARK  148  A    between atoms: _377  and  _378
REMARK  149  A    between atoms: _383  and  _385
REMARK  150  A    between atoms: _385  and  _386
REMARK  151  A    between atoms: _385  and  _388
REMARK  152  A    between atoms: _388  and  _389
REMARK  153  A    between atoms: _399  and  _401
REMARK  154  A    between atoms: _401  and  _402
REMARK  155  A    between atoms: _401  and  _404
REMARK  156  A    between atoms: _404  and  _405
REMARK  157  A    between atoms: _405  and  _406
REMARK  158  A    between atoms: _411  and  _413
REMARK  159  A    between atoms: _413  and  _414
REMARK  160  A    between atoms: _413  and  _416
REMARK  161  A    between atoms: _416  and  _417
REMARK  162  A    between atoms: _422  and  _424
REMARK  163  A    between atoms: _424  and  _425
REMARK  164  A    between atoms: _424  and  _427
REMARK  165  A    between atoms: _427  and  _428
REMARK  166  A    between atoms: _431  and  _433
REMARK  167  A    between atoms: _433  and  _434
REMARK  168  A    between atoms: _433  and  _436
REMARK  169  A    between atoms: _436  and  _437
REMARK  170  A    between atoms: _440  and  _442
REMARK  171  A    between atoms: _442  and  _443
REMARK  172  A    between atoms: _445  and  _447
REMARK  173  A    between atoms: _447  and  _448
REMARK  174  A    between atoms: _447  and  _450
REMARK  175  A    between atoms: _450  and  _451
REMARK  176  A    between atoms: _461  and  _463
REMARK  177  A    between atoms: _463  and  _464
REMARK  178  A    between atoms: _463  and  _466
REMARK  179  A    between atoms: _466  and  _467
REMARK  180  A    between atoms: _467  and  _468
REMARK                            x       y       z     vdW  Elec       q    Type
REMARK                         _______ _______ _______ _____ _____    ______ ____
ROOT
ATOM      1  CB  GLN A   1      12.277  42.238  76.581  0.00  0.00    +0.035 C 
ENDROOT
BRANCH   1   2
ATOM      2  CA  GLN A   1      13.365  41.266  76.089  0.00  0.00    +0.134 C 
BRANCH   2   3
ATOM      3  N   GLN A   1      13.828  41.691  74.794  0.00  0.00    -0.239 NA
ATOM      4  H   GLN A   1      13.328  42.470  74.320  0.00  0.00    +0.142 HD
ENDBRANCH   2   3
BRANCH   2   5
ATOM      5  C   GLN A   1      12.813  39.834  76.040  0.00  0.00    +0.224 C 
ATOM      6  O   GLN A   1      13.088  39.007  76.911  0.00  0.00    -0.287 OA
ENDBRANCH   2   5
ENDBRANCH   1   2
BRANCH   1   7
ATOM      7  CG  GLN A   1      11.633  41.829  77.878  0.00  0.00    +0.087 C 
BRANCH   7   8
ATOM      8  CD  GLN A   1      10.370  42.609  78.153  0.00  0.00    +0.219 C 
ATOM      9  NE2 GLN A   1      10.489  43.683  78.928  0.00  0.00    -0.329 N 
ATOM     10 HE21 GLN A   1      11.418  43.945  79.315  0.00  0.00    +0.145 HD
ATOM     11 HE22 GLN A   1       9.653  44.261  79.147  0.00  0.00    +0.145 HD
ATOM     12  OE1 GLN A   1       9.294  42.260  77.673  0.00  0.00    -0.275 OA
ENDBRANCH   7   8
ENDBRANCH   1   7
TORSDOF 5
REMARK  Name = ../refined-set-2016/3qfy/3qfy_pocket.pdb
REMARK  180 active torsions:
REMARK  status: ('A' for Active; 'I' for Inactive)
REMARK    1  A    between atoms: _1  and  _3
REMARK    2  A    between atoms: _3  and  _4
REMARK    3  A    between atoms: _3  and  _6
REMARK    4  A    between atoms: _6  and  _7
REMARK    5  A    between atoms: _7  and  _8
REMARK    6  A    between atoms: _8  and  _9
REMARK    7  A    between atoms: _18  and  _20
REMARK    8  A    between atoms: _20  and  _21
REMARK    9  A    between atoms: _20  and  _23
REMARK   10  A    between atoms: _23  and  _24
REMARK   11  A    between atoms: _24  and  _25
REMARK   12  A    between atoms: _28  and  _30
REMARK   13  A    between atoms: _30  and  _31
REMARK   14  A    between atoms: _30  and  _33
REMARK   15  A    between atoms: _33  and  _34
REMARK   16  A    between atoms: _34  and  _35
REMARK   17  A    between atoms: _35  and  _36
REMARK   18  A    between atoms: _45  and  _47
REMARK   19  A    between atoms: _47  and  _48
REMARK   20  A    between atoms: _50  and  _52
REMARK   21  A    between atoms: _52  and  _53
REMARK   22  A    between atoms: _52  and  _55
REMARK   23  A    between atoms: _55  and  _56
REMARK   24  A    between atoms: _62  and  _64
REMARK   25  A    between atoms: _64  and  _65
REMARK   26  A    between atoms: _64  and  _67
REMARK   27  A    between atoms: _67  and  _68
REMARK   28  A    between atoms: _68  and  _69
REMARK   29  A    between atoms: _69  and  _70
REMARK   30  A    between atoms: _79  and  _81
REMARK   31  A    between atoms: _81  and  _82
REMARK   32  A    between atoms: _81  and  _84
REMARK   33  A    between atoms: _84  and  _85
REMARK   34  A    between atoms: _88  and  _90
REMARK   35  A    between atoms: _90  and  _91
REMARK   36  A    between atoms: _90  and  _93
REMARK   37  A    between atoms: _93  and  _94
REMARK   38  A    between atoms: _96  and  _98
REMARK   39  A    between atoms: _98  and  _99
REMARK   40  A    between atoms: _98  and  _101
REMARK   41  A    between atoms: _101  and  _102
REMARK   42  A    between atoms: _102  and  _103
REMARK   43  A    between atoms: _108  and  _110
REMARK   44  A    between atoms: _110  and  _111
REMARK   45  A    between atoms: _110  and  _113
REMARK   46  A    between atoms: _113  and  _114
REMARK   47  A    between atoms: _119  and  _121
REMARK   48  A    between atoms: _121  and  _122
REMARK   49  A    between atoms: _121  and  _124
REMARK   50  A    between atoms: _124  and  _125
REMARK   51  A    between atoms: _128  and  _130
REMARK   52  A    between atoms: _130  and  _131
REMARK   53  A    between atoms: _130  and  _133
REMARK   54  A    between atoms: _133  and  _134
REMARK   55  A    between atoms: _140  and  _142
REMARK   56  A    between atoms: _142  and  _143
REMARK   57  A    between atoms: _142  and  _145
REMARK   58  A    between atoms: _145  and  _146
REMARK   59  A    between atoms: _149  and  _151
REMARK   60  A    between atoms: _151  and  _152
REMARK   61  A    between atoms: _151  and  _154
REMARK   62  A    between atoms: _154  and  _155
REMARK   63  A    between atoms: _158  and  _160
REMARK   64  A    between atoms: _160  and  _161
REMARK   65  A    between atoms: _160  and  _163
REMARK   66  A    between atoms: _163  and  _164
REMARK   67  A    between atoms: _174  and  _176
REMARK   68  A    between atoms: _176  and  _177
REMARK   69  A    between atoms: _180  and  _182
REMARK   70  A    between atoms: _182  and  _183
REMARK   71  A    between atoms: _182  and  _185
REMARK   72  A    between atoms: _185  and  _186
REMARK   73  A    between atoms: _189  and  _191
REMARK   74  A    between atoms: _191  and  _192
REMARK   75  A    between atoms: _191  and  _194
REMARK   76  A    between atoms: _194  and  _195
REMARK   77  A    between atoms: _205  and  _207
REMARK   78  A    between atoms: _207  and  _208
REMARK   79  A    between atoms: _207  and  _210
REMARK   80  A    between atoms: _210  and  _211
REMARK   81  A    between atoms: _216  and  _218
REMARK   82  A    between atoms: _218  and  _219
REMARK   83  A    between atoms: _218  and  _221
REMARK   84  A    between atoms: _221  and  _222
REMARK   85  A    between atoms: _225  and  _227
REMARK   86  A    between atoms: _227  and  _228
REMARK   87  A    between atoms: _227  and  _230
REMARK   88  A    between atoms: _232  and  _234
REMARK   89  A    between atoms: _234  and  _235
REMARK   90  A    between atoms: _234  and  _237
REMARK   91  A    between atoms: _237  and  _238
REMARK   92  A    between atoms: _241  and  _243
REMARK   93  A    between atoms: _243  and  _244
REMARK   94  A    between atoms: _243  and  _246
REMARK   95  A    between atoms: _246  and  _247
REMARK   96  A    between atoms: _252  and  _254
REMARK   97  A    between atoms: _254  and  _255
REMARK   98  A    between atoms: _254  and  _257
REMARK   99  A    between atoms: _257  and  _258
REMARK  100  A    between atoms: _258  and  _259
REMARK  101  A    between atoms: _264  and  _266
REMARK  102  A    between atoms: _266  and  _267
REMARK  103  A    between atoms: _266  and  _269
REMARK  104  A    between atoms: _269  and  _270
REMARK  105  A    between atoms: _276  and  _278
REMARK  106  A    between atoms: _278  and  _279
REMARK  107  A    between atoms: _278  and  _281
REMARK  108  A    between atoms: _281  and  _282
REMARK  109  A    between atoms: _282  and  _283
REMARK  110  A    between atoms: _283  and  _284
REMARK  111  A    between atoms: _293  and  _295
REMARK  112  A    between atoms: _295  and  _296
REMARK  113  A    between atoms: _295  and  _298
REMARK  114  A    between atoms: _298  and  _299
REMARK  115  A    between atoms: _299  and  _300
REMARK  116  A    between atoms: _303  and  _305
REMARK  117  A    between atoms: _305  and  _306
REMARK  118  A    between atoms: _305  and  _308
REMARK  119  A    between atoms: _308  and  _309
REMARK  120  A    between atoms: _312  and  _314
REMARK  121  A    between atoms: _314  and  _315
REMARK  122  A    between atoms: _314  and  _317
REMARK  123  A    between atoms: _317  and  _318
REMARK  124  A    between atoms: _323  and  _324
REMARK  125  A    between atoms: _326  and  _328
REMARK  126  A    between atoms: _328  and  _329
REMARK  127  A    between atoms: _328  and  _331
REMARK  128  A    between atoms: _331  and  _332
REMARK  129  A    between atoms: _332  and  _333
REMARK  130  A    between atoms: _333  and  _334
REMARK  131  A    between atoms: _334  and  _335
REMARK  132  A    between atoms: _339  and  _341
REMARK  133  A    between atoms: _341  and  _342
REMARK  134  A    between atoms: _341  and  _344
REMARK  135  A    between atoms: _344  and  _345
REMARK  136  A    between atoms: _345  and  _346
REMARK  137  A    between atoms: _349  and  _351
REMARK  138  A    between atoms: _351  and  _352
REMARK  139  A    between atoms: _351  and  _354
REMARK  140  A    between atoms: _354  and  _355
REMARK  141  A    between atoms: _361  and  _363
REMARK  142  A    between atoms: _363  and  _364
REMARK  143  A    between atoms: _363  and  _366
REMARK  144  A    between atoms: _366  and  _367
REMARK  145  A    between atoms: _372  and  _374
REMARK  146  A    between atoms: _374  and  _375
REMARK  147  A    between atoms: _374  and  _377
REMARK  148  A    between atoms: _377  and  _378
REMARK  149  A    between atoms: _383  and  _385
REMARK  150  A    between atoms: _385  and  _386
REMARK  151  A    between atoms: _385  and  _388
REMARK  152  A    between atoms: _388  and  _389
REMARK  153  A    between atoms: _399  and  _401
REMARK  154  A    between atoms: _401  and  _402
REMARK  155  A    between atoms: _401  and  _404
REMARK  156  A    between atoms: _404  and  _405
REMARK  157  A    between atoms: _405  and  _406
REMARK  158  A    between atoms: _411  and  _413
REMARK  159  A    between atoms: _413  and  _414
REMARK  160  A    between atoms: _413  and  _416
REMARK  161  A    between atoms: _416  and  _417
REMARK  162  A    between atoms: _422  and  _424
REMARK  163  A    between atoms: _424  and  _425
REMARK  164  A    between atoms: _424  and  _427
REMARK  165  A    between atoms: _427  and  _428
REMARK  166  A    between atoms: _431  and  _433
REMARK  167  A    between atoms: _433  and  _434
REMARK  168  A    between atoms: _433  and  _436
REMARK  169  A    between atoms: _436  and  _437
REMARK  170  A    between atoms: _440  and  _442
REMARK  171  A    between atoms: _442  and  _443
REMARK  172  A    between atoms: _445  and  _447
REMARK  173  A    between atoms: _447  and  _448
REMARK  174  A    between atoms: _447  and  _450
REMARK  175  A    between atoms: _450  and  _451
REMARK  176  A    between atoms: _461  and  _463
REMARK  177  A    between atoms: _463  and  _464
REMARK  178  A    between atoms: _463  and  _466
REMARK  179  A    between atoms: _466  and  _467
REMARK  180  A    between atoms: _467  and  _468
REMARK                            x       y       z     vdW  Elec       q    Type
REMARK                         _______ _______ _______ _____ _____    ______ ____
ROOT
ATOM      1  CB  ASN A   1      10.133  44.102  74.308  0.00  0.00    +0.110 C 
ENDROOT
BRANCH   1   2
ATOM      2  CG  ASN A   1       8.602  44.215  74.547  0.00  0.00    +0.221 C 
ATOM      3  OD1 ASN A   1       8.041  43.614  75.493  0.00  0.00    -0.275 OA
ATOM      4  ND2 ASN A   1       7.939  44.965  73.703  0.00  0.00    -0.329 N 
ATOM      5 HD21 ASN A   1       6.910  45.078  73.805  0.00  0.00    +0.145 HD
ATOM      6 HD22 ASN A   1       8.441  45.448  72.931  0.00  0.00    +0.145 HD
ENDBRANCH   1   2
BRANCH   1   7
ATOM      7  CA  ASN A   1      10.553  44.476  72.878  0.00  0.00    +0.142 C 
BRANCH   7   8
ATOM      8  N   ASN A   1       9.837  43.682  71.867  0.00  0.00    -0.239 NA
ATOM      9  H   ASN A   1       9.276  44.153  71.129  0.00  0.00    +0.142 HD
ENDBRANCH   7   8
BRANCH   7  10
ATOM     10  C   ASN A   1      12.099  44.375  72.710  0.00  0.00    +0.225 C 
ATOM     11  O   ASN A   1      12.838  43.995  73.664  0.00  0.00    -0.287 OA
ENDBRANCH   7  10
ENDBRANCH   1   7
TORSDOF 4
REMARK  Name = ../refined-set-2016/3qfy/3qfy_pocket.pdb
REMARK  180 active torsions:
REMARK  status: ('A' for Active; 'I' for Inactive)
REMARK    1  A    between atoms: _1  and  _3
REMARK    2  A    between atoms: _3  and  _4
REMARK    3  A    between atoms: _3  and  _6
REMARK    4  A    between atoms: _6  and  _7
REMARK    5  A    between atoms: _7  and  _8
REMARK    6  A    between atoms: _8  and  _9
REMARK    7  A    between atoms: _18  and  _20
REMARK    8  A    between atoms: _20  and  _21
REMARK    9  A    between atoms: _20  and  _23
REMARK   10  A    between atoms: _23  and  _24
REMARK   11  A    between atoms: _24  and  _25
REMARK   12  A    between atoms: _28  and  _30
REMARK   13  A    between atoms: _30  and  _31
REMARK   14  A    between atoms: _30  and  _33
REMARK   15  A    between atoms: _33  and  _34
REMARK   16  A    between atoms: _34  and  _35
REMARK   17  A    between atoms: _35  and  _36
REMARK   18  A    between atoms: _45  and  _47
REMARK   19  A    between atoms: _47  and  _48
REMARK   20  A    between atoms: _50  and  _52
REMARK   21  A    between atoms: _52  and  _53
REMARK   22  A    between atoms: _52  and  _55
REMARK   23  A    between atoms: _55  and  _56
REMARK   24  A    between atoms: _62  and  _64
REMARK   25  A    between atoms: _64  and  _65
REMARK   26  A    between atoms: _64  and  _67
REMARK   27  A    between atoms: _67  and  _68
REMARK   28  A    between atoms: _68  and  _69
REMARK   29  A    between atoms: _69  and  _70
REMARK   30  A    between atoms: _79  and  _81
REMARK   31  A    between atoms: _81  and  _82
REMARK   32  A    between atoms: _81  and  _84
REMARK   33  A    between atoms: _84  and  _85
REMARK   34  A    between atoms: _88  and  _90
REMARK   35  A    between atoms: _90  and  _91
REMARK   36  A    between atoms: _90  and  _93
REMARK   37  A    between atoms: _93  and  _94
REMARK   38  A    between atoms: _96  and  _98
REMARK   39  A    between atoms: _98  and  _99
REMARK   40  A    between atoms: _98  and  _101
REMARK   41  A    between atoms: _101  and  _102
REMARK   42  A    between atoms: _102  and  _103
REMARK   43  A    between atoms: _108  and  _110
REMARK   44  A    between atoms: _110  and  _111
REMARK   45  A    between atoms: _110  and  _113
REMARK   46  A    between atoms: _113  and  _114
REMARK   47  A    between atoms: _119  and  _121
REMARK   48  A    between atoms: _121  and  _122
REMARK   49  A    between atoms: _121  and  _124
REMARK   50  A    between atoms: _124  and  _125
REMARK   51  A    between atoms: _128  and  _130
REMARK   52  A    between atoms: _130  and  _131
REMARK   53  A    between atoms: _130  and  _133
REMARK   54  A    between atoms: _133  and  _134
REMARK   55  A    between atoms: _140  and  _142
REMARK   56  A    between atoms: _142  and  _143
REMARK   57  A    between atoms: _142  and  _145
REMARK   58  A    between atoms: _145  and  _146
REMARK   59  A    between atoms: _149  and  _151
REMARK   60  A    between atoms: _151  and  _152
REMARK   61  A    between atoms: _151  and  _154
REMARK   62  A    between atoms: _154  and  _155
REMARK   63  A    between atoms: _158  and  _160
REMARK   64  A    between atoms: _160  and  _161
REMARK   65  A    between atoms: _160  and  _163
REMARK   66  A    between atoms: _163  and  _164
REMARK   67  A    between atoms: _174  and  _176
REMARK   68  A    between atoms: _176  and  _177
REMARK   69  A    between atoms: _180  and  _182
REMARK   70  A    between atoms: _182  and  _183
REMARK   71  A    between atoms: _182  and  _185
REMARK   72  A    between atoms: _185  and  _186
REMARK   73  A    between atoms: _189  and  _191
REMARK   74  A    between atoms: _191  and  _192
REMARK   75  A    between atoms: _191  and  _194
REMARK   76  A    between atoms: _194  and  _195
REMARK   77  A    between atoms: _205  and  _207
REMARK   78  A    between atoms: _207  and  _208
REMARK   79  A    between atoms: _207  and  _210
REMARK   80  A    between atoms: _210  and  _211
REMARK   81  A    between atoms: _216  and  _218
REMARK   82  A    between atoms: _218  and  _219
REMARK   83  A    between atoms: _218  and  _221
REMARK   84  A    between atoms: _221  and  _222
REMARK   85  A    between atoms: _225  and  _227
REMARK   86  A    between atoms: _227  and  _228
REMARK   87  A    between atoms: _227  and  _230
REMARK   88  A    between atoms: _232  and  _234
REMARK   89  A    between atoms: _234  and  _235
REMARK   90  A    between atoms: _234  and  _237
REMARK   91  A    between atoms: _237  and  _238
REMARK   92  A    between atoms: _241  and  _243
REMARK   93  A    between atoms: _243  and  _244
REMARK   94  A    between atoms: _243  and  _246
REMARK   95  A    between atoms: _246  and  _247
REMARK   96  A    between atoms: _252  and  _254
REMARK   97  A    between atoms: _254  and  _255
REMARK   98  A    between atoms: _254  and  _257
REMARK   99  A    between atoms: _257  and  _258
REMARK  100  A    between atoms: _258  and  _259
REMARK  101  A    between atoms: _264  and  _266
REMARK  102  A    between atoms: _266  and  _267
REMARK  103  A    between atoms: _266  and  _269
REMARK  104  A    between atoms: _269  and  _270
REMARK  105  A    between atoms: _276  and  _278
REMARK  106  A    between atoms: _278  and  _279
REMARK  107  A    between atoms: _278  and  _281
REMARK  108  A    between atoms: _281  and  _282
REMARK  109  A    between atoms: _282  and  _283
REMARK  110  A    between atoms: _283  and  _284
REMARK  111  A    between atoms: _293  and  _295
REMARK  112  A    between atoms: _295  and  _296
REMARK  113  A    between atoms: _295  and  _298
REMARK  114  A    between atoms: _298  and  _299
REMARK  115  A    between atoms: _299  and  _300
REMARK  116  A    between atoms: _303  and  _305
REMARK  117  A    between atoms: _305  and  _306
REMARK  118  A    between atoms: _305  and  _308
REMARK  119  A    between atoms: _308  and  _309
REMARK  120  A    between atoms: _312  and  _314
REMARK  121  A    between atoms: _314  and  _315
REMARK  122  A    between atoms: _314  and  _317
REMARK  123  A    between atoms: _317  and  _318
REMARK  124  A    between atoms: _323  and  _324
REMARK  125  A    between atoms: _326  and  _328
REMARK  126  A    between atoms: _328  and  _329
REMARK  127  A    between atoms: _328  and  _331
REMARK  128  A    between atoms: _331  and  _332
REMARK  129  A    between atoms: _332  and  _333
REMARK  130  A    between atoms: _333  and  _334
REMARK  131  A    between atoms: _334  and  _335
REMARK  132  A    between atoms: _339  and  _341
REMARK  133  A    between atoms: _341  and  _342
REMARK  134  A    between atoms: _341  and  _344
REMARK  135  A    between atoms: _344  and  _345
REMARK  136  A    between atoms: _345  and  _346
REMARK  137  A    between atoms: _349  and  _351
REMARK  138  A    between atoms: _351  and  _352
REMARK  139  A    between atoms: _351  and  _354
REMARK  140  A    between atoms: _354  and  _355
REMARK  141  A    between atoms: _361  and  _363
REMARK  142  A    between atoms: _363  and  _364
REMARK  143  A    between atoms: _363  and  _366
REMARK  144  A    between atoms: _366  and  _367
REMARK  145  A    between atoms: _372  and  _374
REMARK  146  A    between atoms: _374  and  _375
REMARK  147  A    between atoms: _374  and  _377
REMARK  148  A    between atoms: _377  and  _378
REMARK  149  A    between atoms: _383  and  _385
REMARK  150  A    between atoms: _385  and  _386
REMARK  151  A    between atoms: _385  and  _388
REMARK  152  A    between atoms: _388  and  _389
REMARK  153  A    between atoms: _399  and  _401
REMARK  154  A    between atoms: _401  and  _402
REMARK  155  A    between atoms: _401  and  _404
REMARK  156  A    between atoms: _404  and  _405
REMARK  157  A    between atoms: _405  and  _406
REMARK  158  A    between atoms: _411  and  _413
REMARK  159  A    between atoms: _413  and  _414
REMARK  160  A    between atoms: _413  and  _416
REMARK  161  A    between atoms: _416  and  _417
REMARK  162  A    between atoms: _422  and  _424
REMARK  163  A    between atoms: _424  and  _425
REMARK  164  A    between atoms: _424  and  _427
REMARK  165  A    between atoms: _427  and  _428
REMARK  166  A    between atoms: _431  and  _433
REMARK  167  A    between atoms: _433  and  _434
REMARK  168  A    between atoms: _433  and  _436
REMARK  169  A    between atoms: _436  and  _437
REMARK  170  A    between atoms: _440  and  _442
REMARK  171  A    between atoms: _442  and  _443
REMARK  172  A    between atoms: _445  and  _447
REMARK  173  A    between atoms: _447  and  _448
REMARK  174  A    between atoms: _447  and  _450
REMARK  175  A    between atoms: _450  and  _451
REMARK  176  A    between atoms: _461  and  _463
REMARK  177  A    between atoms: _463  and  _464
REMARK  178  A    between atoms: _463  and  _466
REMARK  179  A    between atoms: _466  and  _467
REMARK  180  A    between atoms: _467  and  _468
REMARK                            x       y       z     vdW  Elec       q    Type
REMARK                         _______ _______ _______ _____ _____    ______ ____
ROOT
ATOM      1  CA  THR A   2      16.381  44.982  78.049  0.00  0.00    +0.176 C 
ENDROOT
BRANCH   1   3
ATOM      2  C   LEU A   1      15.373  46.817  76.838  0.00  0.00    +0.238 C 
ATOM      3  N   THR A   2      16.444  46.207  77.317  0.00  0.00    -0.295 N 
ATOM      4  H   THR A   2      17.376  46.639  77.153  0.00  0.00    +0.150 HD
ATOM      5  O   LEU A   1      14.212  46.450  77.073  0.00  0.00    -0.274 OA
BRANCH   2   6
ATOM      6  CA  LEU A   1      15.680  48.009  75.927  0.00  0.00    +0.145 C 
BRANCH   6   7
ATOM      7  N   LEU A   1      15.697  47.585  74.504  0.00  0.00    -0.238 NA
ATOM      8  H   LEU A   1      14.799  47.515  73.984  0.00  0.00    +0.142 HD
ENDBRANCH   6   7
BRANCH   6   9
ATOM      9  CB  LEU A   1      14.651  49.133  76.127  0.00  0.00    +0.026 C 
BRANCH   9  10
ATOM     10  CG  LEU A   1      14.967  50.400  75.346  0.00  0.00    +0.002 C 
ATOM     11  CD2 LEU A   1      14.114  51.469  75.918  0.00  0.00    +0.000 C 
ATOM     12  CD1 LEU A   1      16.459  50.779  75.367  0.00  0.00    +0.000 C 
ENDBRANCH   9  10
ENDBRANCH   6   9
ENDBRANCH   2   6
ENDBRANCH   1   3
BRANCH   1  13
ATOM     13  C   THR A   2      17.679  44.760  78.843  0.00  0.00    +0.243 C 
ATOM     14  N   GLY A   3      17.555  44.216  80.056  0.00  0.00    -0.296 N 
ATOM     15  H   GLY A   3      16.607  43.988  80.417  0.00  0.00    +0.150 HD
ATOM     16  O   THR A   2      18.779  45.032  78.353  0.00  0.00    -0.273 OA
BRANCH  14  17
ATOM     17  CA  GLY A   3      18.733  43.931  80.895  0.00  0.00    +0.163 C 
BRANCH  17  18
ATOM     18  C   GLY A   3      19.485  42.759  80.344  0.00  0.00    +0.229 C 
ATOM     19  O   GLY A   3      20.565  42.451  80.802  0.00  0.00    -0.286 OA
ENDBRANCH  17  18
ENDBRANCH  14  17
ENDBRANCH   1  13
BRANCH   1  20
ATOM     20  CB  THR A   2      16.108  43.792  77.050  0.00  0.00    +0.137 C 
ATOM     21  CG2 THR A   2      17.118  43.770  75.927  0.00  0.00    +0.034 C 
BRANCH  20  22
ATOM     22  OG1 THR A   2      16.155  42.562  77.759  0.00  0.00    -0.382 OA
ATOM     23  HG1 THR A   2      15.984  41.815  77.133  0.00  0.00    +0.210 HD
ENDBRANCH  20  22
ENDBRANCH   1  20
TORSDOF 10
REMARK  Name = ../refined-set-2016/3qfy/3qfy_pocket.pdb
REMARK  180 active torsions:
REMARK  status: ('A' for Active; 'I' for Inactive)
REMARK    1  A    between atoms: _1  and  _3
REMARK    2  A    between atoms: _3  and  _4
REMARK    3  A    between atoms: _3  and  _6
REMARK    4  A    between atoms: _6  and  _7
REMARK    5  A    between atoms: _7  and  _8
REMARK    6  A    between atoms: _8  and  _9
REMARK    7  A    between atoms: _18  and  _20
REMARK    8  A    between atoms: _20  and  _21
REMARK    9  A    between atoms: _20  and  _23
REMARK   10  A    between atoms: _23  and  _24
REMARK   11  A    between atoms: _24  and  _25
REMARK   12  A    between atoms: _28  and  _30
REMARK   13  A    between atoms: _30  and  _31
REMARK   14  A    between atoms: _30  and  _33
REMARK   15  A    between atoms: _33  and  _34
REMARK   16  A    between atoms: _34  and  _35
REMARK   17  A    between atoms: _35  and  _36
REMARK   18  A    between atoms: _45  and  _47
REMARK   19  A    between atoms: _47  and  _48
REMARK   20  A    between atoms: _50  and  _52
REMARK   21  A    between atoms: _52  and  _53
REMARK   22  A    between atoms: _52  and  _55
REMARK   23  A    between atoms: _55  and  _56
REMARK   24  A    between atoms: _62  and  _64
REMARK   25  A    between atoms: _64  and  _65
REMARK   26  A    between atoms: _64  and  _67
REMARK   27  A    between atoms: _67  and  _68
REMARK   28  A    between atoms: _68  and  _69
REMARK   29  A    between atoms: _69  and  _70
REMARK   30  A    between atoms: _79  and  _81
REMARK   31  A    between atoms: _81  and  _82
REMARK   32  A    between atoms: _81  and  _84
REMARK   33  A    between atoms: _84  and  _85
REMARK   34  A    between atoms: _88  and  _90
REMARK   35  A    between atoms: _90  and  _91
REMARK   36  A    between atoms: _90  and  _93
REMARK   37  A    between atoms: _93  and  _94
REMARK   38  A    between atoms: _96  and  _98
REMARK   39  A    between atoms: _98  and  _99
REMARK   40  A    between atoms: _98  and  _101
REMARK   41  A    between atoms: _101  and  _102
REMARK   42  A    between atoms: _102  and  _103
REMARK   43  A    between atoms: _108  and  _110
REMARK   44  A    between atoms: _110  and  _111
REMARK   45  A    between atoms: _110  and  _113
REMARK   46  A    between atoms: _113  and  _114
REMARK   47  A    between atoms: _119  and  _121
REMARK   48  A    between atoms: _121  and  _122
REMARK   49  A    between atoms: _121  and  _124
REMARK   50  A    between atoms: _124  and  _125
REMARK   51  A    between atoms: _128  and  _130
REMARK   52  A    between atoms: _130  and  _131
REMARK   53  A    between atoms: _130  and  _133
REMARK   54  A    between atoms: _133  and  _134
REMARK   55  A    between atoms: _140  and  _142
REMARK   56  A    between atoms: _142  and  _143
REMARK   57  A    between atoms: _142  and  _145
REMARK   58  A    between atoms: _145  and  _146
REMARK   59  A    between atoms: _149  and  _151
REMARK   60  A    between atoms: _151  and  _152
REMARK   61  A    between atoms: _151  and  _154
REMARK   62  A    between atoms: _154  and  _155
REMARK   63  A    between atoms: _158  and  _160
REMARK   64  A    between atoms: _160  and  _161
REMARK   65  A    between atoms: _160  and  _163
REMARK   66  A    between atoms: _163  and  _164
REMARK   67  A    between atoms: _174  and  _176
REMARK   68  A    between atoms: _176  and  _177
REMARK   69  A    between atoms: _180  and  _182
REMARK   70  A    between atoms: _182  and  _183
REMARK   71  A    between atoms: _182  and  _185
REMARK   72  A    between atoms: _185  and  _186
REMARK   73  A    between atoms: _189  and  _191
REMARK   74  A    between atoms: _191  and  _192
REMARK   75  A    between atoms: _191  and  _194
REMARK   76  A    between atoms: _194  and  _195
REMARK   77  A    between atoms: _205  and  _207
REMARK   78  A    between atoms: _207  and  _208
REMARK   79  A    between atoms: _207  and  _210
REMARK   80  A    between atoms: _210  and  _211
REMARK   81  A    between atoms: _216  and  _218
REMARK   82  A    between atoms: _218  and  _219
REMARK   83  A    between atoms: _218  and  _221
REMARK   84  A    between atoms: _221  and  _222
REMARK   85  A    between atoms: _225  and  _227
REMARK   86  A    between atoms: _227  and  _228
REMARK   87  A    between atoms: _227  and  _230
REMARK   88  A    between atoms: _232  and  _234
REMARK   89  A    between atoms: _234  and  _235
REMARK   90  A    between atoms: _234  and  _237
REMARK   91  A    between atoms: _237  and  _238
REMARK   92  A    between atoms: _241  and  _243
REMARK   93  A    between atoms: _243  and  _244
REMARK   94  A    between atoms: _243  and  _246
REMARK   95  A    between atoms: _246  and  _247
REMARK   96  A    between atoms: _252  and  _254
REMARK   97  A    between atoms: _254  and  _255
REMARK   98  A    between atoms: _254  and  _257
REMARK   99  A    between atoms: _257  and  _258
REMARK  100  A    between atoms: _258  and  _259
REMARK  101  A    between atoms: _264  and  _266
REMARK  102  A    between atoms: _266  and  _267
REMARK  103  A    between atoms: _266  and  _269
REMARK  104  A    between atoms: _269  and  _270
REMARK  105  A    between atoms: _276  and  _278
REMARK  106  A    between atoms: _278  and  _279
REMARK  107  A    between atoms: _278  and  _281
REMARK  108  A    between atoms: _281  and  _282
REMARK  109  A    between atoms: _282  and  _283
REMARK  110  A    between atoms: _283  and  _284
REMARK  111  A    between atoms: _293  and  _295
REMARK  112  A    between atoms: _295  and  _296
REMARK  113  A    between atoms: _295  and  _298
REMARK  114  A    between atoms: _298  and  _299
REMARK  115  A    between atoms: _299  and  _300
REMARK  116  A    between atoms: _303  and  _305
REMARK  117  A    between atoms: _305  and  _306
REMARK  118  A    between atoms: _305  and  _308
REMARK  119  A    between atoms: _308  and  _309
REMARK  120  A    between atoms: _312  and  _314
REMARK  121  A    between atoms: _314  and  _315
REMARK  122  A    between atoms: _314  and  _317
REMARK  123  A    between atoms: _317  and  _318
REMARK  124  A    between atoms: _323  and  _324
REMARK  125  A    between atoms: _326  and  _328
REMARK  126  A    between atoms: _328  and  _329
REMARK  127  A    between atoms: _328  and  _331
REMARK  128  A    between atoms: _331  and  _332
REMARK  129  A    between atoms: _332  and  _333
REMARK  130  A    between atoms: _333  and  _334
REMARK  131  A    between atoms: _334  and  _335
REMARK  132  A    between atoms: _339  and  _341
REMARK  133  A    between atoms: _341  and  _342
REMARK  134  A    between atoms: _341  and  _344
REMARK  135  A    between atoms: _344  and  _345
REMARK  136  A    between atoms: _345  and  _346
REMARK  137  A    between atoms: _349  and  _351
REMARK  138  A    between atoms: _351  and  _352
REMARK  139  A    between atoms: _351  and  _354
REMARK  140  A    between atoms: _354  and  _355
REMARK  141  A    between atoms: _361  and  _363
REMARK  142  A    between atoms: _363  and  _364
REMARK  143  A    between atoms: _363  and  _366
REMARK  144  A    between atoms: _366  and  _367
REMARK  145  A    between atoms: _372  and  _374
REMARK  146  A    between atoms: _374  and  _375
REMARK  147  A    between atoms: _374  and  _377
REMARK  148  A    between atoms: _377  and  _378
REMARK  149  A    between atoms: _383  and  _385
REMARK  150  A    between atoms: _385  and  _386
REMARK  151  A    between atoms: _385  and  _388
REMARK  152  A    between atoms: _388  and  _389
REMARK  153  A    between atoms: _399  and  _401
REMARK  154  A    between atoms: _401  and  _402
REMARK  155  A    between atoms: _401  and  _404
REMARK  156  A    between atoms: _404  and  _405
REMARK  157  A    between atoms: _405  and  _406
REMARK  158  A    between atoms: _411  and  _413
REMARK  159  A    between atoms: _413  and  _414
REMARK  160  A    between atoms: _413  and  _416
REMARK  161  A    between atoms: _416  and  _417
REMARK  162  A    between atoms: _422  and  _424
REMARK  163  A    between atoms: _424  and  _425
REMARK  164  A    between atoms: _424  and  _427
REMARK  165  A    between atoms: _427  and  _428
REMARK  166  A    between atoms: _431  and  _433
REMARK  167  A    between atoms: _433  and  _434
REMARK  168  A    between atoms: _433  and  _436
REMARK  169  A    between atoms: _436  and  _437
REMARK  170  A    between atoms: _440  and  _442
REMARK  171  A    between atoms: _442  and  _443
REMARK  172  A    between atoms: _445  and  _447
REMARK  173  A    between atoms: _447  and  _448
REMARK  174  A    between atoms: _447  and  _450
REMARK  175  A    between atoms: _450  and  _451
REMARK  176  A    between atoms: _461  and  _463
REMARK  177  A    between atoms: _463  and  _464
REMARK  178  A    between atoms: _463  and  _466
REMARK  179  A    between atoms: _466  and  _467
REMARK  180  A    between atoms: _467  and  _468
REMARK                            x       y       z     vdW  Elec       q    Type
REMARK                         _______ _______ _______ _____ _____    ______ ____
ROOT
ATOM      1  CG  TRP A   1      22.038  40.122  83.673  0.00  0.00    -0.002 A 
ATOM      2  CD2 TRP A   1      22.789  39.721  84.818  0.00  0.00    +0.013 A 
ATOM      3  CE2 TRP A   1      22.191  40.323  85.940  0.00  0.00    +0.056 A 
ATOM      4  CZ2 TRP A   1      22.673  40.131  87.221  0.00  0.00    +0.017 A 
ATOM      5  CH2 TRP A   1      23.789  39.337  87.374  0.00  0.00    +0.001 A 
ATOM      6  CZ3 TRP A   1      24.410  38.708  86.258  0.00  0.00    +0.000 A 
ATOM      7  NE1 TRP A   1      21.138  41.083  85.502  0.00  0.00    -0.352 N 
ATOM      8  HE1 TRP A   1      20.521  41.665  86.104  0.00  0.00    +0.166 HD
ATOM      9  CE3 TRP A   1      23.925  38.893  85.004  0.00  0.00    +0.001 A 
ATOM     10  CD1 TRP A   1      21.029  40.953  84.143  0.00  0.00    +0.068 A 
ENDROOT
BRANCH   1  11
ATOM     11  CB  TRP A   1      22.313  39.741  82.239  0.00  0.00    +0.053 C 
BRANCH  11  12
ATOM     12  CA  TRP A   1      23.604  40.411  81.710  0.00  0.00    +0.137 C 
BRANCH  12  13
ATOM     13  N   TRP A   1      23.401  41.793  81.208  0.00  0.00    -0.239 NA
ATOM     14  H   TRP A   1      22.438  42.174  81.116  0.00  0.00    +0.142 HD
ENDBRANCH  12  13
BRANCH  12  15
ATOM     15  C   TRP A   1      24.346  39.475  80.716  0.00  0.00    +0.224 C 
ATOM     16  O   TRP A   1      25.170  38.645  81.149  0.00  0.00    -0.287 OA
ENDBRANCH  12  15
ENDBRANCH  11  12
ENDBRANCH   1  11
TORSDOF 4
REMARK  Name = ../refined-set-2016/3qfy/3qfy_pocket.pdb
REMARK  180 active torsions:
REMARK  status: ('A' for Active; 'I' for Inactive)
REMARK    1  A    between atoms: _1  and  _3
REMARK    2  A    between atoms: _3  and  _4
REMARK    3  A    between atoms: _3  and  _6
REMARK    4  A    between atoms: _6  and  _7
REMARK    5  A    between atoms: _7  and  _8
REMARK    6  A    between atoms: _8  and  _9
REMARK    7  A    between atoms: _18  and  _20
REMARK    8  A    between atoms: _20  and  _21
REMARK    9  A    between atoms: _20  and  _23
REMARK   10  A    between atoms: _23  and  _24
REMARK   11  A    between atoms: _24  and  _25
REMARK   12  A    between atoms: _28  and  _30
REMARK   13  A    between atoms: _30  and  _31
REMARK   14  A    between atoms: _30  and  _33
REMARK   15  A    between atoms: _33  and  _34
REMARK   16  A    between atoms: _34  and  _35
REMARK   17  A    between atoms: _35  and  _36
REMARK   18  A    between atoms: _45  and  _47
REMARK   19  A    between atoms: _47  and  _48
REMARK   20  A    between atoms: _50  and  _52
REMARK   21  A    between atoms: _52  and  _53
REMARK   22  A    between atoms: _52  and  _55
REMARK   23  A    between atoms: _55  and  _56
REMARK   24  A    between atoms: _62  and  _64
REMARK   25  A    between atoms: _64  and  _65
REMARK   26  A    between atoms: _64  and  _67
REMARK   27  A    between atoms: _67  and  _68
REMARK   28  A    between atoms: _68  and  _69
REMARK   29  A    between atoms: _69  and  _70
REMARK   30  A    between atoms: _79  and  _81
REMARK   31  A    between atoms: _81  and  _82
REMARK   32  A    between atoms: _81  and  _84
REMARK   33  A    between atoms: _84  and  _85
REMARK   34  A    between atoms: _88  and  _90
REMARK   35  A    between atoms: _90  and  _91
REMARK   36  A    between atoms: _90  and  _93
REMARK   37  A    between atoms: _93  and  _94
REMARK   38  A    between atoms: _96  and  _98
REMARK   39  A    between atoms: _98  and  _99
REMARK   40  A    between atoms: _98  and  _101
REMARK   41  A    between atoms: _101  and  _102
REMARK   42  A    between atoms: _102  and  _103
REMARK   43  A    between atoms: _108  and  _110
REMARK   44  A    between atoms: _110  and  _111
REMARK   45  A    between atoms: _110  and  _113
REMARK   46  A    between atoms: _113  and  _114
REMARK   47  A    between atoms: _119  and  _121
REMARK   48  A    between atoms: _121  and  _122
REMARK   49  A    between atoms: _121  and  _124
REMARK   50  A    between atoms: _124  and  _125
REMARK   51  A    between atoms: _128  and  _130
REMARK   52  A    between atoms: _130  and  _131
REMARK   53  A    between atoms: _130  and  _133
REMARK   54  A    between atoms: _133  and  _134
REMARK   55  A    between atoms: _140  and  _142
REMARK   56  A    between atoms: _142  and  _143
REMARK   57  A    between atoms: _142  and  _145
REMARK   58  A    between atoms: _145  and  _146
REMARK   59  A    between atoms: _149  and  _151
REMARK   60  A    between atoms: _151  and  _152
REMARK   61  A    between atoms: _151  and  _154
REMARK   62  A    between atoms: _154  and  _155
REMARK   63  A    between atoms: _158  and  _160
REMARK   64  A    between atoms: _160  and  _161
REMARK   65  A    between atoms: _160  and  _163
REMARK   66  A    between atoms: _163  and  _164
REMARK   67  A    between atoms: _174  and  _176
REMARK   68  A    between atoms: _176  and  _177
REMARK   69  A    between atoms: _180  and  _182
REMARK   70  A    between atoms: _182  and  _183
REMARK   71  A    between atoms: _182  and  _185
REMARK   72  A    between atoms: _185  and  _186
REMARK   73  A    between atoms: _189  and  _191
REMARK   74  A    between atoms: _191  and  _192
REMARK   75  A    between atoms: _191  and  _194
REMARK   76  A    between atoms: _194  and  _195
REMARK   77  A    between atoms: _205  and  _207
REMARK   78  A    between atoms: _207  and  _208
REMARK   79  A    between atoms: _207  and  _210
REMARK   80  A    between atoms: _210  and  _211
REMARK   81  A    between atoms: _216  and  _218
REMARK   82  A    between atoms: _218  and  _219
REMARK   83  A    between atoms: _218  and  _221
REMARK   84  A    between atoms: _221  and  _222
REMARK   85  A    between atoms: _225  and  _227
REMARK   86  A    between atoms: _227  and  _228
REMARK   87  A    between atoms: _227  and  _230
REMARK   88  A    between atoms: _232  and  _234
REMARK   89  A    between atoms: _234  and  _235
REMARK   90  A    between atoms: _234  and  _237
REMARK   91  A    between atoms: _237  and  _238
REMARK   92  A    between atoms: _241  and  _243
REMARK   93  A    between atoms: _243  and  _244
REMARK   94  A    between atoms: _243  and  _246
REMARK   95  A    between atoms: _246  and  _247
REMARK   96  A    between atoms: _252  and  _254
REMARK   97  A    between atoms: _254  and  _255
REMARK   98  A    between atoms: _254  and  _257
REMARK   99  A    between atoms: _257  and  _258
REMARK  100  A    between atoms: _258  and  _259
REMARK  101  A    between atoms: _264  and  _266
REMARK  102  A    between atoms: _266  and  _267
REMARK  103  A    between atoms: _266  and  _269
REMARK  104  A    between atoms: _269  and  _270
REMARK  105  A    between atoms: _276  and  _278
REMARK  106  A    between atoms: _278  and  _279
REMARK  107  A    between atoms: _278  and  _281
REMARK  108  A    between atoms: _281  and  _282
REMARK  109  A    between atoms: _282  and  _283
REMARK  110  A    between atoms: _283  and  _284
REMARK  111  A    between atoms: _293  and  _295
REMARK  112  A    between atoms: _295  and  _296
REMARK  113  A    between atoms: _295  and  _298
REMARK  114  A    between atoms: _298  and  _299
REMARK  115  A    between atoms: _299  and  _300
REMARK  116  A    between atoms: _303  and  _305
REMARK  117  A    between atoms: _305  and  _306
REMARK  118  A    between atoms: _305  and  _308
REMARK  119  A    between atoms: _308  and  _309
REMARK  120  A    between atoms: _312  and  _314
REMARK  121  A    between atoms: _314  and  _315
REMARK  122  A    between atoms: _314  and  _317
REMARK  123  A    between atoms: _317  and  _318
REMARK  124  A    between atoms: _323  and  _324
REMARK  125  A    between atoms: _326  and  _328
REMARK  126  A    between atoms: _328  and  _329
REMARK  127  A    between atoms: _328  and  _331
REMARK  128  A    between atoms: _331  and  _332
REMARK  129  A    between atoms: _332  and  _333
REMARK  130  A    between atoms: _333  and  _334
REMARK  131  A    between atoms: _334  and  _335
REMARK  132  A    between atoms: _339  and  _341
REMARK  133  A    between atoms: _341  and  _342
REMARK  134  A    between atoms: _341  and  _344
REMARK  135  A    between atoms: _344  and  _345
REMARK  136  A    between atoms: _345  and  _346
REMARK  137  A    between atoms: _349  and  _351
REMARK  138  A    between atoms: _351  and  _352
REMARK  139  A    between atoms: _351  and  _354
REMARK  140  A    between atoms: _354  and  _355
REMARK  141  A    between atoms: _361  and  _363
REMARK  142  A    between atoms: _363  and  _364
REMARK  143  A    between atoms: _363  and  _366
REMARK  144  A    between atoms: _366  and  _367
REMARK  145  A    between atoms: _372  and  _374
REMARK  146  A    between atoms: _374  and  _375
REMARK  147  A    between atoms: _374  and  _377
REMARK  148  A    between atoms: _377  and  _378
REMARK  149  A    between atoms: _383  and  _385
REMARK  150  A    between atoms: _385  and  _386
REMARK  151  A    between atoms: _385  and  _388
REMARK  152  A    between atoms: _388  and  _389
REMARK  153  A    between atoms: _399  and  _401
REMARK  154  A    between atoms: _401  and  _402
REMARK  155  A    between atoms: _401  and  _404
REMARK  156  A    between atoms: _404  and  _405
REMARK  157  A    between atoms: _405  and  _406
REMARK  158  A    between atoms: _411  and  _413
REMARK  159  A    between atoms: _413  and  _414
REMARK  160  A    between atoms: _413  and  _416
REMARK  161  A    between atoms: _416  and  _417
REMARK  162  A    between atoms: _422  and  _424
REMARK  163  A    between atoms: _424  and  _425
REMARK  164  A    between atoms: _424  and  _427
REMARK  165  A    between atoms: _427  and  _428
REMARK  166  A    between atoms: _431  and  _433
REMARK  167  A    between atoms: _433  and  _434
REMARK  168  A    between atoms: _433  and  _436
REMARK  169  A    between atoms: _436  and  _437
REMARK  170  A    between atoms: _440  and  _442
REMARK  171  A    between atoms: _442  and  _443
REMARK  172  A    between atoms: _445  and  _447
REMARK  173  A    between atoms: _447  and  _448
REMARK  174  A    between atoms: _447  and  _450
REMARK  175  A    between atoms: _450  and  _451
REMARK  176  A    between atoms: _461  and  _463
REMARK  177  A    between atoms: _463  and  _464
REMARK  178  A    between atoms: _463  and  _466
REMARK  179  A    between atoms: _466  and  _467
REMARK  180  A    between atoms: _467  and  _468
REMARK                            x       y       z     vdW  Elec       q    Type
REMARK                         _______ _______ _______ _____ _____    ______ ____
ROOT
ATOM      1  CB  GLN A   1       6.234  46.791  76.981  0.00  0.00    +0.035 C 
ENDROOT
BRANCH   1   2
ATOM      2  CA  GLN A   1       5.327  46.047  76.006  0.00  0.00    +0.134 C 
BRANCH   2   3
ATOM      3  N   GLN A   1       4.354  46.961  75.430  0.00  0.00    -0.239 NA
ATOM      4  H   GLN A   1       4.353  47.952  75.747  0.00  0.00    +0.142 HD
ENDBRANCH   2   3
BRANCH   2   5
ATOM      5  C   GLN A   1       4.610  44.870  76.713  0.00  0.00    +0.224 C 
ATOM      6  O   GLN A   1       5.158  43.743  76.814  0.00  0.00    -0.287 OA
ENDBRANCH   2   5
ENDBRANCH   1   2
BRANCH   1   7
ATOM      7  CG  GLN A   1       5.557  47.469  78.185  0.00  0.00    +0.087 C 
BRANCH   7   8
ATOM      8  CD  GLN A   1       5.290  46.486  79.330  0.00  0.00    +0.219 C 
ATOM      9  NE2 GLN A   1       4.311  46.836  80.202  0.00  0.00    -0.329 N 
ATOM     10 HE21 GLN A   1       4.094  46.223  81.014  0.00  0.00    +0.145 HD
ATOM     11 HE22 GLN A   1       3.778  47.717  80.059  0.00  0.00    +0.145 HD
ATOM     12  OE1 GLN A   1       5.973  45.433  79.446  0.00  0.00    -0.275 OA
ENDBRANCH   7   8
ENDBRANCH   1   7
TORSDOF 5
REMARK  Name = ../refined-set-2016/3qfy/3qfy_pocket.pdb
REMARK  180 active torsions:
REMARK  status: ('A' for Active; 'I' for Inactive)
REMARK    1  A    between atoms: _1  and  _3
REMARK    2  A    between atoms: _3  and  _4
REMARK    3  A    between atoms: _3  and  _6
REMARK    4  A    between atoms: _6  and  _7
REMARK    5  A    between atoms: _7  and  _8
REMARK    6  A    between atoms: _8  and  _9
REMARK    7  A    between atoms: _18  and  _20
REMARK    8  A    between atoms: _20  and  _21
REMARK    9  A    between atoms: _20  and  _23
REMARK   10  A    between atoms: _23  and  _24
REMARK   11  A    between atoms: _24  and  _25
REMARK   12  A    between atoms: _28  and  _30
REMARK   13  A    between atoms: _30  and  _31
REMARK   14  A    between atoms: _30  and  _33
REMARK   15  A    between atoms: _33  and  _34
REMARK   16  A    between atoms: _34  and  _35
REMARK   17  A    between atoms: _35  and  _36
REMARK   18  A    between atoms: _45  and  _47
REMARK   19  A    between atoms: _47  and  _48
REMARK   20  A    between atoms: _50  and  _52
REMARK   21  A    between atoms: _52  and  _53
REMARK   22  A    between atoms: _52  and  _55
REMARK   23  A    between atoms: _55  and  _56
REMARK   24  A    between atoms: _62  and  _64
REMARK   25  A    between atoms: _64  and  _65
REMARK   26  A    between atoms: _64  and  _67
REMARK   27  A    between atoms: _67  and  _68
REMARK   28  A    between atoms: _68  and  _69
REMARK   29  A    between atoms: _69  and  _70
REMARK   30  A    between atoms: _79  and  _81
REMARK   31  A    between atoms: _81  and  _82
REMARK   32  A    between atoms: _81  and  _84
REMARK   33  A    between atoms: _84  and  _85
REMARK   34  A    between atoms: _88  and  _90
REMARK   35  A    between atoms: _90  and  _91
REMARK   36  A    between atoms: _90  and  _93
REMARK   37  A    between atoms: _93  and  _94
REMARK   38  A    between atoms: _96  and  _98
REMARK   39  A    between atoms: _98  and  _99
REMARK   40  A    between atoms: _98  and  _101
REMARK   41  A    between atoms: _101  and  _102
REMARK   42  A    between atoms: _102  and  _103
REMARK   43  A    between atoms: _108  and  _110
REMARK   44  A    between atoms: _110  and  _111
REMARK   45  A    between atoms: _110  and  _113
REMARK   46  A    between atoms: _113  and  _114
REMARK   47  A    between atoms: _119  and  _121
REMARK   48  A    between atoms: _121  and  _122
REMARK   49  A    between atoms: _121  and  _124
REMARK   50  A    between atoms: _124  and  _125
REMARK   51  A    between atoms: _128  and  _130
REMARK   52  A    between atoms: _130  and  _131
REMARK   53  A    between atoms: _130  and  _133
REMARK   54  A    between atoms: _133  and  _134
REMARK   55  A    between atoms: _140  and  _142
REMARK   56  A    between atoms: _142  and  _143
REMARK   57  A    between atoms: _142  and  _145
REMARK   58  A    between atoms: _145  and  _146
REMARK   59  A    between atoms: _149  and  _151
REMARK   60  A    between atoms: _151  and  _152
REMARK   61  A    between atoms: _151  and  _154
REMARK   62  A    between atoms: _154  and  _155
REMARK   63  A    between atoms: _158  and  _160
REMARK   64  A    between atoms: _160  and  _161
REMARK   65  A    between atoms: _160  and  _163
REMARK   66  A    between atoms: _163  and  _164
REMARK   67  A    between atoms: _174  and  _176
REMARK   68  A    between atoms: _176  and  _177
REMARK   69  A    between atoms: _180  and  _182
REMARK   70  A    between atoms: _182  and  _183
REMARK   71  A    between atoms: _182  and  _185
REMARK   72  A    between atoms: _185  and  _186
REMARK   73  A    between atoms: _189  and  _191
REMARK   74  A    between atoms: _191  and  _192
REMARK   75  A    between atoms: _191  and  _194
REMARK   76  A    between atoms: _194  and  _195
REMARK   77  A    between atoms: _205  and  _207
REMARK   78  A    between atoms: _207  and  _208
REMARK   79  A    between atoms: _207  and  _210
REMARK   80  A    between atoms: _210  and  _211
REMARK   81  A    between atoms: _216  and  _218
REMARK   82  A    between atoms: _218  and  _219
REMARK   83  A    between atoms: _218  and  _221
REMARK   84  A    between atoms: _221  and  _222
REMARK   85  A    between atoms: _225  and  _227
REMARK   86  A    between atoms: _227  and  _228
REMARK   87  A    between atoms: _227  and  _230
REMARK   88  A    between atoms: _232  and  _234
REMARK   89  A    between atoms: _234  and  _235
REMARK   90  A    between atoms: _234  and  _237
REMARK   91  A    between atoms: _237  and  _238
REMARK   92  A    between atoms: _241  and  _243
REMARK   93  A    between atoms: _243  and  _244
REMARK   94  A    between atoms: _243  and  _246
REMARK   95  A    between atoms: _246  and  _247
REMARK   96  A    between atoms: _252  and  _254
REMARK   97  A    between atoms: _254  and  _255
REMARK   98  A    between atoms: _254  and  _257
REMARK   99  A    between atoms: _257  and  _258
REMARK  100  A    between atoms: _258  and  _259
REMARK  101  A    between atoms: _264  and  _266
REMARK  102  A    between atoms: _266  and  _267
REMARK  103  A    between atoms: _266  and  _269
REMARK  104  A    between atoms: _269  and  _270
REMARK  105  A    between atoms: _276  and  _278
REMARK  106  A    between atoms: _278  and  _279
REMARK  107  A    between atoms: _278  and  _281
REMARK  108  A    between atoms: _281  and  _282
REMARK  109  A    between atoms: _282  and  _283
REMARK  110  A    between atoms: _283  and  _284
REMARK  111  A    between atoms: _293  and  _295
REMARK  112  A    between atoms: _295  and  _296
REMARK  113  A    between atoms: _295  and  _298
REMARK  114  A    between atoms: _298  and  _299
REMARK  115  A    between atoms: _299  and  _300
REMARK  116  A    between atoms: _303  and  _305
REMARK  117  A    between atoms: _305  and  _306
REMARK  118  A    between atoms: _305  and  _308
REMARK  119  A    between atoms: _308  and  _309
REMARK  120  A    between atoms: _312  and  _314
REMARK  121  A    between atoms: _314  and  _315
REMARK  122  A    between atoms: _314  and  _317
REMARK  123  A    between atoms: _317  and  _318
REMARK  124  A    between atoms: _323  and  _324
REMARK  125  A    between atoms: _326  and  _328
REMARK  126  A    between atoms: _328  and  _329
REMARK  127  A    between atoms: _328  and  _331
REMARK  128  A    between atoms: _331  and  _332
REMARK  129  A    between atoms: _332  and  _333
REMARK  130  A    between atoms: _333  and  _334
REMARK  131  A    between atoms: _334  and  _335
REMARK  132  A    between atoms: _339  and  _341
REMARK  133  A    between atoms: _341  and  _342
REMARK  134  A    between atoms: _341  and  _344
REMARK  135  A    between atoms: _344  and  _345
REMARK  136  A    between atoms: _345  and  _346
REMARK  137  A    between atoms: _349  and  _351
REMARK  138  A    between atoms: _351  and  _352
REMARK  139  A    between atoms: _351  and  _354
REMARK  140  A    between atoms: _354  and  _355
REMARK  141  A    between atoms: _361  and  _363
REMARK  142  A    between atoms: _363  and  _364
REMARK  143  A    between atoms: _363  and  _366
REMARK  144  A    between atoms: _366  and  _367
REMARK  145  A    between atoms: _372  and  _374
REMARK  146  A    between atoms: _374  and  _375
REMARK  147  A    between atoms: _374  and  _377
REMARK  148  A    between atoms: _377  and  _378
REMARK  149  A    between atoms: _383  and  _385
REMARK  150  A    between atoms: _385  and  _386
REMARK  151  A    between atoms: _385  and  _388
REMARK  152  A    between atoms: _388  and  _389
REMARK  153  A    between atoms: _399  and  _401
REMARK  154  A    between atoms: _401  and  _402
REMARK  155  A    between atoms: _401  and  _404
REMARK  156  A    between atoms: _404  and  _405
REMARK  157  A    between atoms: _405  and  _406
REMARK  158  A    between atoms: _411  and  _413
REMARK  159  A    between atoms: _413  and  _414
REMARK  160  A    between atoms: _413  and  _416
REMARK  161  A    between atoms: _416  and  _417
REMARK  162  A    between atoms: _422  and  _424
REMARK  163  A    between atoms: _424  and  _425
REMARK  164  A    between atoms: _424  and  _427
REMARK  165  A    between atoms: _427  and  _428
REMARK  166  A    between atoms: _431  and  _433
REMARK  167  A    between atoms: _433  and  _434
REMARK  168  A    between atoms: _433  and  _436
REMARK  169  A    between atoms: _436  and  _437
REMARK  170  A    between atoms: _440  and  _442
REMARK  171  A    between atoms: _442  and  _443
REMARK  172  A    between atoms: _445  and  _447
REMARK  173  A    between atoms: _447  and  _448
REMARK  174  A    between atoms: _447  and  _450
REMARK  175  A    between atoms: _450  and  _451
REMARK  176  A    between atoms: _461  and  _463
REMARK  177  A    between atoms: _463  and  _464
REMARK  178  A    between atoms: _463  and  _466
REMARK  179  A    between atoms: _466  and  _467
REMARK  180  A    between atoms: _467  and  _468
REMARK                            x       y       z     vdW  Elec       q    Type
REMARK                         _______ _______ _______ _____ _____    ______ ____
ROOT
ATOM      1  O   HOH     1      12.713  52.413  82.750  0.00  0.00    +0.000 OA
ENDROOT
TORSDOF 0
REMARK  Name = ../refined-set-2016/3qfy/3qfy_pocket.pdb
REMARK  180 active torsions:
REMARK  status: ('A' for Active; 'I' for Inactive)
REMARK    1  A    between atoms: _1  and  _3
REMARK    2  A    between atoms: _3  and  _4
REMARK    3  A    between atoms: _3  and  _6
REMARK    4  A    between atoms: _6  and  _7
REMARK    5  A    between atoms: _7  and  _8
REMARK    6  A    between atoms: _8  and  _9
REMARK    7  A    between atoms: _18  and  _20
REMARK    8  A    between atoms: _20  and  _21
REMARK    9  A    between atoms: _20  and  _23
REMARK   10  A    between atoms: _23  and  _24
REMARK   11  A    between atoms: _24  and  _25
REMARK   12  A    between atoms: _28  and  _30
REMARK   13  A    between atoms: _30  and  _31
REMARK   14  A    between atoms: _30  and  _33
REMARK   15  A    between atoms: _33  and  _34
REMARK   16  A    between atoms: _34  and  _35
REMARK   17  A    between atoms: _35  and  _36
REMARK   18  A    between atoms: _45  and  _47
REMARK   19  A    between atoms: _47  and  _48
REMARK   20  A    between atoms: _50  and  _52
REMARK   21  A    between atoms: _52  and  _53
REMARK   22  A    between atoms: _52  and  _55
REMARK   23  A    between atoms: _55  and  _56
REMARK   24  A    between atoms: _62  and  _64
REMARK   25  A    between atoms: _64  and  _65
REMARK   26  A    between atoms: _64  and  _67
REMARK   27  A    between atoms: _67  and  _68
REMARK   28  A    between atoms: _68  and  _69
REMARK   29  A    between atoms: _69  and  _70
REMARK   30  A    between atoms: _79  and  _81
REMARK   31  A    between atoms: _81  and  _82
REMARK   32  A    between atoms: _81  and  _84
REMARK   33  A    between atoms: _84  and  _85
REMARK   34  A    between atoms: _88  and  _90
REMARK   35  A    between atoms: _90  and  _91
REMARK   36  A    between atoms: _90  and  _93
REMARK   37  A    between atoms: _93  and  _94
REMARK   38  A    between atoms: _96  and  _98
REMARK   39  A    between atoms: _98  and  _99
REMARK   40  A    between atoms: _98  and  _101
REMARK   41  A    between atoms: _101  and  _102
REMARK   42  A    between atoms: _102  and  _103
REMARK   43  A    between atoms: _108  and  _110
REMARK   44  A    between atoms: _110  and  _111
REMARK   45  A    between atoms: _110  and  _113
REMARK   46  A    between atoms: _113  and  _114
REMARK   47  A    between atoms: _119  and  _121
REMARK   48  A    between atoms: _121  and  _122
REMARK   49  A    between atoms: _121  and  _124
REMARK   50  A    between atoms: _124  and  _125
REMARK   51  A    between atoms: _128  and  _130
REMARK   52  A    between atoms: _130  and  _131
REMARK   53  A    between atoms: _130  and  _133
REMARK   54  A    between atoms: _133  and  _134
REMARK   55  A    between atoms: _140  and  _142
REMARK   56  A    between atoms: _142  and  _143
REMARK   57  A    between atoms: _142  and  _145
REMARK   58  A    between atoms: _145  and  _146
REMARK   59  A    between atoms: _149  and  _151
REMARK   60  A    between atoms: _151  and  _152
REMARK   61  A    between atoms: _151  and  _154
REMARK   62  A    between atoms: _154  and  _155
REMARK   63  A    between atoms: _158  and  _160
REMARK   64  A    between atoms: _160  and  _161
REMARK   65  A    between atoms: _160  and  _163
REMARK   66  A    between atoms: _163  and  _164
REMARK   67  A    between atoms: _174  and  _176
REMARK   68  A    between atoms: _176  and  _177
REMARK   69  A    between atoms: _180  and  _182
REMARK   70  A    between atoms: _182  and  _183
REMARK   71  A    between atoms: _182  and  _185
REMARK   72  A    between atoms: _185  and  _186
REMARK   73  A    between atoms: _189  and  _191
REMARK   74  A    between atoms: _191  and  _192
REMARK   75  A    between atoms: _191  and  _194
REMARK   76  A    between atoms: _194  and  _195
REMARK   77  A    between atoms: _205  and  _207
REMARK   78  A    between atoms: _207  and  _208
REMARK   79  A    between atoms: _207  and  _210
REMARK   80  A    between atoms: _210  and  _211
REMARK   81  A    between atoms: _216  and  _218
REMARK   82  A    between atoms: _218  and  _219
REMARK   83  A    between atoms: _218  and  _221
REMARK   84  A    between atoms: _221  and  _222
REMARK   85  A    between atoms: _225  and  _227
REMARK   86  A    between atoms: _227  and  _228
REMARK   87  A    between atoms: _227  and  _230
REMARK   88  A    between atoms: _232  and  _234
REMARK   89  A    between atoms: _234  and  _235
REMARK   90  A    between atoms: _234  and  _237
REMARK   91  A    between atoms: _237  and  _238
REMARK   92  A    between atoms: _241  and  _243
REMARK   93  A    between atoms: _243  and  _244
REMARK   94  A    between atoms: _243  and  _246
REMARK   95  A    between atoms: _246  and  _247
REMARK   96  A    between atoms: _252  and  _254
REMARK   97  A    between atoms: _254  and  _255
REMARK   98  A    between atoms: _254  and  _257
REMARK   99  A    between atoms: _257  and  _258
REMARK  100  A    between atoms: _258  and  _259
REMARK  101  A    between atoms: _264  and  _266
REMARK  102  A    between atoms: _266  and  _267
REMARK  103  A    between atoms: _266  and  _269
REMARK  104  A    between atoms: _269  and  _270
REMARK  105  A    between atoms: _276  and  _278
REMARK  106  A    between atoms: _278  and  _279
REMARK  107  A    between atoms: _278  and  _281
REMARK  108  A    between atoms: _281  and  _282
REMARK  109  A    between atoms: _282  and  _283
REMARK  110  A    between atoms: _283  and  _284
REMARK  111  A    between atoms: _293  and  _295
REMARK  112  A    between atoms: _295  and  _296
REMARK  113  A    between atoms: _295  and  _298
REMARK  114  A    between atoms: _298  and  _299
REMARK  115  A    between atoms: _299  and  _300
REMARK  116  A    between atoms: _303  and  _305
REMARK  117  A    between atoms: _305  and  _306
REMARK  118  A    between atoms: _305  and  _308
REMARK  119  A    between atoms: _308  and  _309
REMARK  120  A    between atoms: _312  and  _314
REMARK  121  A    between atoms: _314  and  _315
REMARK  122  A    between atoms: _314  and  _317
REMARK  123  A    between atoms: _317  and  _318
REMARK  124  A    between atoms: _323  and  _324
REMARK  125  A    between atoms: _326  and  _328
REMARK  126  A    between atoms: _328  and  _329
REMARK  127  A    between atoms: _328  and  _331
REMARK  128  A    between atoms: _331  and  _332
REMARK  129  A    between atoms: _332  and  _333
REMARK  130  A    between atoms: _333  and  _334
REMARK  131  A    between atoms: _334  and  _335
REMARK  132  A    between atoms: _339  and  _341
REMARK  133  A    between atoms: _341  and  _342
REMARK  134  A    between atoms: _341  and  _344
REMARK  135  A    between atoms: _344  and  _345
REMARK  136  A    between atoms: _345  and  _346
REMARK  137  A    between atoms: _349  and  _351
REMARK  138  A    between atoms: _351  and  _352
REMARK  139  A    between atoms: _351  and  _354
REMARK  140  A    between atoms: _354  and  _355
REMARK  141  A    between atoms: _361  and  _363
REMARK  142  A    between atoms: _363  and  _364
REMARK  143  A    between atoms: _363  and  _366
REMARK  144  A    between atoms: _366  and  _367
REMARK  145  A    between atoms: _372  and  _374
REMARK  146  A    between atoms: _374  and  _375
REMARK  147  A    between atoms: _374  and  _377
REMARK  148  A    between atoms: _377  and  _378
REMARK  149  A    between atoms: _383  and  _385
REMARK  150  A    between atoms: _385  and  _386
REMARK  151  A    between atoms: _385  and  _388
REMARK  152  A    between atoms: _388  and  _389
REMARK  153  A    between atoms: _399  and  _401
REMARK  154  A    between atoms: _401  and  _402
REMARK  155  A    between atoms: _401  and  _404
REMARK  156  A    between atoms: _404  and  _405
REMARK  157  A    between atoms: _405  and  _406
REMARK  158  A    between atoms: _411  and  _413
REMARK  159  A    between atoms: _413  and  _414
REMARK  160  A    between atoms: _413  and  _416
REMARK  161  A    between atoms: _416  and  _417
REMARK  162  A    between atoms: _422  and  _424
REMARK  163  A    between atoms: _424  and  _425
REMARK  164  A    between atoms: _424  and  _427
REMARK  165  A    between atoms: _427  and  _428
REMARK  166  A    between atoms: _431  and  _433
REMARK  167  A    between atoms: _433  and  _434
REMARK  168  A    between atoms: _433  and  _436
REMARK  169  A    between atoms: _436  and  _437
REMARK  170  A    between atoms: _440  and  _442
REMARK  171  A    between atoms: _442  and  _443
REMARK  172  A    between atoms: _445  and  _447
REMARK  173  A    between atoms: _447  and  _448
REMARK  174  A    between atoms: _447  and  _450
REMARK  175  A    between atoms: _450  and  _451
REMARK  176  A    between atoms: _461  and  _463
REMARK  177  A    between atoms: _463  and  _464
REMARK  178  A    between atoms: _463  and  _466
REMARK  179  A    between atoms: _466  and  _467
REMARK  180  A    between atoms: _467  and  _468
REMARK                            x       y       z     vdW  Elec       q    Type
REMARK                         _______ _______ _______ _____ _____    ______ ____
ROOT
ATOM      1  O   HOH     1      10.635  51.501  84.286  0.00  0.00    +0.000 OA
ENDROOT
TORSDOF 0
REMARK  Name = ../refined-set-2016/3qfy/3qfy_pocket.pdb
REMARK  180 active torsions:
REMARK  status: ('A' for Active; 'I' for Inactive)
REMARK    1  A    between atoms: _1  and  _3
REMARK    2  A    between atoms: _3  and  _4
REMARK    3  A    between atoms: _3  and  _6
REMARK    4  A    between atoms: _6  and  _7
REMARK    5  A    between atoms: _7  and  _8
REMARK    6  A    between atoms: _8  and  _9
REMARK    7  A    between atoms: _18  and  _20
REMARK    8  A    between atoms: _20  and  _21
REMARK    9  A    between atoms: _20  and  _23
REMARK   10  A    between atoms: _23  and  _24
REMARK   11  A    between atoms: _24  and  _25
REMARK   12  A    between atoms: _28  and  _30
REMARK   13  A    between atoms: _30  and  _31
REMARK   14  A    between atoms: _30  and  _33
REMARK   15  A    between atoms: _33  and  _34
REMARK   16  A    between atoms: _34  and  _35
REMARK   17  A    between atoms: _35  and  _36
REMARK   18  A    between atoms: _45  and  _47
REMARK   19  A    between atoms: _47  and  _48
REMARK   20  A    between atoms: _50  and  _52
REMARK   21  A    between atoms: _52  and  _53
REMARK   22  A    between atoms: _52  and  _55
REMARK   23  A    between atoms: _55  and  _56
REMARK   24  A    between atoms: _62  and  _64
REMARK   25  A    between atoms: _64  and  _65
REMARK   26  A    between atoms: _64  and  _67
REMARK   27  A    between atoms: _67  and  _68
REMARK   28  A    between atoms: _68  and  _69
REMARK   29  A    between atoms: _69  and  _70
REMARK   30  A    between atoms: _79  and  _81
REMARK   31  A    between atoms: _81  and  _82
REMARK   32  A    between atoms: _81  and  _84
REMARK   33  A    between atoms: _84  and  _85
REMARK   34  A    between atoms: _88  and  _90
REMARK   35  A    between atoms: _90  and  _91
REMARK   36  A    between atoms: _90  and  _93
REMARK   37  A    between atoms: _93  and  _94
REMARK   38  A    between atoms: _96  and  _98
REMARK   39  A    between atoms: _98  and  _99
REMARK   40  A    between atoms: _98  and  _101
REMARK   41  A    between atoms: _101  and  _102
REMARK   42  A    between atoms: _102  and  _103
REMARK   43  A    between atoms: _108  and  _110
REMARK   44  A    between atoms: _110  and  _111
REMARK   45  A    between atoms: _110  and  _113
REMARK   46  A    between atoms: _113  and  _114
REMARK   47  A    between atoms: _119  and  _121
REMARK   48  A    between atoms: _121  and  _122
REMARK   49  A    between atoms: _121  and  _124
REMARK   50  A    between atoms: _124  and  _125
REMARK   51  A    between atoms: _128  and  _130
REMARK   52  A    between atoms: _130  and  _131
REMARK   53  A    between atoms: _130  and  _133
REMARK   54  A    between atoms: _133  and  _134
REMARK   55  A    between atoms: _140  and  _142
REMARK   56  A    between atoms: _142  and  _143
REMARK   57  A    between atoms: _142  and  _145
REMARK   58  A    between atoms: _145  and  _146
REMARK   59  A    between atoms: _149  and  _151
REMARK   60  A    between atoms: _151  and  _152
REMARK   61  A    between atoms: _151  and  _154
REMARK   62  A    between atoms: _154  and  _155
REMARK   63  A    between atoms: _158  and  _160
REMARK   64  A    between atoms: _160  and  _161
REMARK   65  A    between atoms: _160  and  _163
REMARK   66  A    between atoms: _163  and  _164
REMARK   67  A    between atoms: _174  and  _176
REMARK   68  A    between atoms: _176  and  _177
REMARK   69  A    between atoms: _180  and  _182
REMARK   70  A    between atoms: _182  and  _183
REMARK   71  A    between atoms: _182  and  _185
REMARK   72  A    between atoms: _185  and  _186
REMARK   73  A    between atoms: _189  and  _191
REMARK   74  A    between atoms: _191  and  _192
REMARK   75  A    between atoms: _191  and  _194
REMARK   76  A    between atoms: _194  and  _195
REMARK   77  A    between atoms: _205  and  _207
REMARK   78  A    between atoms: _207  and  _208
REMARK   79  A    between atoms: _207  and  _210
REMARK   80  A    between atoms: _210  and  _211
REMARK   81  A    between atoms: _216  and  _218
REMARK   82  A    between atoms: _218  and  _219
REMARK   83  A    between atoms: _218  and  _221
REMARK   84  A    between atoms: _221  and  _222
REMARK   85  A    between atoms: _225  and  _227
REMARK   86  A    between atoms: _227  and  _228
REMARK   87  A    between atoms: _227  and  _230
REMARK   88  A    between atoms: _232  and  _234
REMARK   89  A    between atoms: _234  and  _235
REMARK   90  A    between atoms: _234  and  _237
REMARK   91  A    between atoms: _237  and  _238
REMARK   92  A    between atoms: _241  and  _243
REMARK   93  A    between atoms: _243  and  _244
REMARK   94  A    between atoms: _243  and  _246
REMARK   95  A    between atoms: _246  and  _247
REMARK   96  A    between atoms: _252  and  _254
REMARK   97  A    between atoms: _254  and  _255
REMARK   98  A    between atoms: _254  and  _257
REMARK   99  A    between atoms: _257  and  _258
REMARK  100  A    between atoms: _258  and  _259
REMARK  101  A    between atoms: _264  and  _266
REMARK  102  A    between atoms: _266  and  _267
REMARK  103  A    between atoms: _266  and  _269
REMARK  104  A    between atoms: _269  and  _270
REMARK  105  A    between atoms: _276  and  _278
REMARK  106  A    between atoms: _278  and  _279
REMARK  107  A    between atoms: _278  and  _281
REMARK  108  A    between atoms: _281  and  _282
REMARK  109  A    between atoms: _282  and  _283
REMARK  110  A    between atoms: _283  and  _284
REMARK  111  A    between atoms: _293  and  _295
REMARK  112  A    between atoms: _295  and  _296
REMARK  113  A    between atoms: _295  and  _298
REMARK  114  A    between atoms: _298  and  _299
REMARK  115  A    between atoms: _299  and  _300
REMARK  116  A    between atoms: _303  and  _305
REMARK  117  A    between atoms: _305  and  _306
REMARK  118  A    between atoms: _305  and  _308
REMARK  119  A    between atoms: _308  and  _309
REMARK  120  A    between atoms: _312  and  _314
REMARK  121  A    between atoms: _314  and  _315
REMARK  122  A    between atoms: _314  and  _317
REMARK  123  A    between atoms: _317  and  _318
REMARK  124  A    between atoms: _323  and  _324
REMARK  125  A    between atoms: _326  and  _328
REMARK  126  A    between atoms: _328  and  _329
REMARK  127  A    between atoms: _328  and  _331
REMARK  128  A    between atoms: _331  and  _332
REMARK  129  A    between atoms: _332  and  _333
REMARK  130  A    between atoms: _333  and  _334
REMARK  131  A    between atoms: _334  and  _335
REMARK  132  A    between atoms: _339  and  _341
REMARK  133  A    between atoms: _341  and  _342
REMARK  134  A    between atoms: _341  and  _344
REMARK  135  A    between atoms: _344  and  _345
REMARK  136  A    between atoms: _345  and  _346
REMARK  137  A    between atoms: _349  and  _351
REMARK  138  A    between atoms: _351  and  _352
REMARK  139  A    between atoms: _351  and  _354
REMARK  140  A    between atoms: _354  and  _355
REMARK  141  A    between atoms: _361  and  _363
REMARK  142  A    between atoms: _363  and  _364
REMARK  143  A    between atoms: _363  and  _366
REMARK  144  A    between atoms: _366  and  _367
REMARK  145  A    between atoms: _372  and  _374
REMARK  146  A    between atoms: _374  and  _375
REMARK  147  A    between atoms: _374  and  _377
REMARK  148  A    between atoms: _377  and  _378
REMARK  149  A    between atoms: _383  and  _385
REMARK  150  A    between atoms: _385  and  _386
REMARK  151  A    between atoms: _385  and  _388
REMARK  152  A    between atoms: _388  and  _389
REMARK  153  A    between atoms: _399  and  _401
REMARK  154  A    between atoms: _401  and  _402
REMARK  155  A    between atoms: _401  and  _404
REMARK  156  A    between atoms: _404  and  _405
REMARK  157  A    between atoms: _405  and  _406
REMARK  158  A    between atoms: _411  and  _413
REMARK  159  A    between atoms: _413  and  _414
REMARK  160  A    between atoms: _413  and  _416
REMARK  161  A    between atoms: _416  and  _417
REMARK  162  A    between atoms: _422  and  _424
REMARK  163  A    between atoms: _424  and  _425
REMARK  164  A    between atoms: _424  and  _427
REMARK  165  A    between atoms: _427  and  _428
REMARK  166  A    between atoms: _431  and  _433
REMARK  167  A    between atoms: _433  and  _434
REMARK  168  A    between atoms: _433  and  _436
REMARK  169  A    between atoms: _436  and  _437
REMARK  170  A    between atoms: _440  and  _442
REMARK  171  A    between atoms: _442  and  _443
REMARK  172  A    between atoms: _445  and  _447
REMARK  173  A    between atoms: _447  and  _448
REMARK  174  A    between atoms: _447  and  _450
REMARK  175  A    between atoms: _450  and  _451
REMARK  176  A    between atoms: _461  and  _463
REMARK  177  A    between atoms: _463  and  _464
REMARK  178  A    between atoms: _463  and  _466
REMARK  179  A    between atoms: _466  and  _467
REMARK  180  A    between atoms: _467  and  _468
REMARK                            x       y       z     vdW  Elec       q    Type
REMARK                         _______ _______ _______ _____ _____    ______ ____
ROOT
ATOM      1  O   HOH     1      15.820  44.865  83.780  0.00  0.00    +0.000 OA
ENDROOT
TORSDOF 0
REMARK  Name = ../refined-set-2016/3qfy/3qfy_pocket.pdb
REMARK  180 active torsions:
REMARK  status: ('A' for Active; 'I' for Inactive)
REMARK    1  A    between atoms: _1  and  _3
REMARK    2  A    between atoms: _3  and  _4
REMARK    3  A    between atoms: _3  and  _6
REMARK    4  A    between atoms: _6  and  _7
REMARK    5  A    between atoms: _7  and  _8
REMARK    6  A    between atoms: _8  and  _9
REMARK    7  A    between atoms: _18  and  _20
REMARK    8  A    between atoms: _20  and  _21
REMARK    9  A    between atoms: _20  and  _23
REMARK   10  A    between atoms: _23  and  _24
REMARK   11  A    between atoms: _24  and  _25
REMARK   12  A    between atoms: _28  and  _30
REMARK   13  A    between atoms: _30  and  _31
REMARK   14  A    between atoms: _30  and  _33
REMARK   15  A    between atoms: _33  and  _34
REMARK   16  A    between atoms: _34  and  _35
REMARK   17  A    between atoms: _35  and  _36
REMARK   18  A    between atoms: _45  and  _47
REMARK   19  A    between atoms: _47  and  _48
REMARK   20  A    between atoms: _50  and  _52
REMARK   21  A    between atoms: _52  and  _53
REMARK   22  A    between atoms: _52  and  _55
REMARK   23  A    between atoms: _55  and  _56
REMARK   24  A    between atoms: _62  and  _64
REMARK   25  A    between atoms: _64  and  _65
REMARK   26  A    between atoms: _64  and  _67
REMARK   27  A    between atoms: _67  and  _68
REMARK   28  A    between atoms: _68  and  _69
REMARK   29  A    between atoms: _69  and  _70
REMARK   30  A    between atoms: _79  and  _81
REMARK   31  A    between atoms: _81  and  _82
REMARK   32  A    between atoms: _81  and  _84
REMARK   33  A    between atoms: _84  and  _85
REMARK   34  A    between atoms: _88  and  _90
REMARK   35  A    between atoms: _90  and  _91
REMARK   36  A    between atoms: _90  and  _93
REMARK   37  A    between atoms: _93  and  _94
REMARK   38  A    between atoms: _96  and  _98
REMARK   39  A    between atoms: _98  and  _99
REMARK   40  A    between atoms: _98  and  _101
REMARK   41  A    between atoms: _101  and  _102
REMARK   42  A    between atoms: _102  and  _103
REMARK   43  A    between atoms: _108  and  _110
REMARK   44  A    between atoms: _110  and  _111
REMARK   45  A    between atoms: _110  and  _113
REMARK   46  A    between atoms: _113  and  _114
REMARK   47  A    between atoms: _119  and  _121
REMARK   48  A    between atoms: _121  and  _122
REMARK   49  A    between atoms: _121  and  _124
REMARK   50  A    between atoms: _124  and  _125
REMARK   51  A    between atoms: _128  and  _130
REMARK   52  A    between atoms: _130  and  _131
REMARK   53  A    between atoms: _130  and  _133
REMARK   54  A    between atoms: _133  and  _134
REMARK   55  A    between atoms: _140  and  _142
REMARK   56  A    between atoms: _142  and  _143
REMARK   57  A    between atoms: _142  and  _145
REMARK   58  A    between atoms: _145  and  _146
REMARK   59  A    between atoms: _149  and  _151
REMARK   60  A    between atoms: _151  and  _152
REMARK   61  A    between atoms: _151  and  _154
REMARK   62  A    between atoms: _154  and  _155
REMARK   63  A    between atoms: _158  and  _160
REMARK   64  A    between atoms: _160  and  _161
REMARK   65  A    between atoms: _160  and  _163
REMARK   66  A    between atoms: _163  and  _164
REMARK   67  A    between atoms: _174  and  _176
REMARK   68  A    between atoms: _176  and  _177
REMARK   69  A    between atoms: _180  and  _182
REMARK   70  A    between atoms: _182  and  _183
REMARK   71  A    between atoms: _182  and  _185
REMARK   72  A    between atoms: _185  and  _186
REMARK   73  A    between atoms: _189  and  _191
REMARK   74  A    between atoms: _191  and  _192
REMARK   75  A    between atoms: _191  and  _194
REMARK   76  A    between atoms: _194  and  _195
REMARK   77  A    between atoms: _205  and  _207
REMARK   78  A    between atoms: _207  and  _208
REMARK   79  A    between atoms: _207  and  _210
REMARK   80  A    between atoms: _210  and  _211
REMARK   81  A    between atoms: _216  and  _218
REMARK   82  A    between atoms: _218  and  _219
REMARK   83  A    between atoms: _218  and  _221
REMARK   84  A    between atoms: _221  and  _222
REMARK   85  A    between atoms: _225  and  _227
REMARK   86  A    between atoms: _227  and  _228
REMARK   87  A    between atoms: _227  and  _230
REMARK   88  A    between atoms: _232  and  _234
REMARK   89  A    between atoms: _234  and  _235
REMARK   90  A    between atoms: _234  and  _237
REMARK   91  A    between atoms: _237  and  _238
REMARK   92  A    between atoms: _241  and  _243
REMARK   93  A    between atoms: _243  and  _244
REMARK   94  A    between atoms: _243  and  _246
REMARK   95  A    between atoms: _246  and  _247
REMARK   96  A    between atoms: _252  and  _254
REMARK   97  A    between atoms: _254  and  _255
REMARK   98  A    between atoms: _254  and  _257
REMARK   99  A    between atoms: _257  and  _258
REMARK  100  A    between atoms: _258  and  _259
REMARK  101  A    between atoms: _264  and  _266
REMARK  102  A    between atoms: _266  and  _267
REMARK  103  A    between atoms: _266  and  _269
REMARK  104  A    between atoms: _269  and  _270
REMARK  105  A    between atoms: _276  and  _278
REMARK  106  A    between atoms: _278  and  _279
REMARK  107  A    between atoms: _278  and  _281
REMARK  108  A    between atoms: _281  and  _282
REMARK  109  A    between atoms: _282  and  _283
REMARK  110  A    between atoms: _283  and  _284
REMARK  111  A    between atoms: _293  and  _295
REMARK  112  A    between atoms: _295  and  _296
REMARK  113  A    between atoms: _295  and  _298
REMARK  114  A    between atoms: _298  and  _299
REMARK  115  A    between atoms: _299  and  _300
REMARK  116  A    between atoms: _303  and  _305
REMARK  117  A    between atoms: _305  and  _306
REMARK  118  A    between atoms: _305  and  _308
REMARK  119  A    between atoms: _308  and  _309
REMARK  120  A    between atoms: _312  and  _314
REMARK  121  A    between atoms: _314  and  _315
REMARK  122  A    between atoms: _314  and  _317
REMARK  123  A    between atoms: _317  and  _318
REMARK  124  A    between atoms: _323  and  _324
REMARK  125  A    between atoms: _326  and  _328
REMARK  126  A    between atoms: _328  and  _329
REMARK  127  A    between atoms: _328  and  _331
REMARK  128  A    between atoms: _331  and  _332
REMARK  129  A    between atoms: _332  and  _333
REMARK  130  A    between atoms: _333  and  _334
REMARK  131  A    between atoms: _334  and  _335
REMARK  132  A    between atoms: _339  and  _341
REMARK  133  A    between atoms: _341  and  _342
REMARK  134  A    between atoms: _341  and  _344
REMARK  135  A    between atoms: _344  and  _345
REMARK  136  A    between atoms: _345  and  _346
REMARK  137  A    between atoms: _349  and  _351
REMARK  138  A    between atoms: _351  and  _352
REMARK  139  A    between atoms: _351  and  _354
REMARK  140  A    between atoms: _354  and  _355
REMARK  141  A    between atoms: _361  and  _363
REMARK  142  A    between atoms: _363  and  _364
REMARK  143  A    between atoms: _363  and  _366
REMARK  144  A    between atoms: _366  and  _367
REMARK  145  A    between atoms: _372  and  _374
REMARK  146  A    between atoms: _374  and  _375
REMARK  147  A    between atoms: _374  and  _377
REMARK  148  A    between atoms: _377  and  _378
REMARK  149  A    between atoms: _383  and  _385
REMARK  150  A    between atoms: _385  and  _386
REMARK  151  A    between atoms: _385  and  _388
REMARK  152  A    between atoms: _388  and  _389
REMARK  153  A    between atoms: _399  and  _401
REMARK  154  A    between atoms: _401  and  _402
REMARK  155  A    between atoms: _401  and  _404
REMARK  156  A    between atoms: _404  and  _405
REMARK  157  A    between atoms: _405  and  _406
REMARK  158  A    between atoms: _411  and  _413
REMARK  159  A    between atoms: _413  and  _414
REMARK  160  A    between atoms: _413  and  _416
REMARK  161  A    between atoms: _416  and  _417
REMARK  162  A    between atoms: _422  and  _424
REMARK  163  A    between atoms: _424  and  _425
REMARK  164  A    between atoms: _424  and  _427
REMARK  165  A    between atoms: _427  and  _428
REMARK  166  A    between atoms: _431  and  _433
REMARK  167  A    between atoms: _433  and  _434
REMARK  168  A    between atoms: _433  and  _436
REMARK  169  A    between atoms: _436  and  _437
REMARK  170  A    between atoms: _440  and  _442
REMARK  171  A    between atoms: _442  and  _443
REMARK  172  A    between atoms: _445  and  _447
REMARK  173  A    between atoms: _447  and  _448
REMARK  174  A    between atoms: _447  and  _450
REMARK  175  A    between atoms: _450  and  _451
REMARK  176  A    between atoms: _461  and  _463
REMARK  177  A    between atoms: _463  and  _464
REMARK  178  A    between atoms: _463  and  _466
REMARK  179  A    between atoms: _466  and  _467
REMARK  180  A    between atoms: _467  and  _468
REMARK                            x       y       z     vdW  Elec       q    Type
REMARK                         _______ _______ _______ _____ _____    ______ ____
ROOT
ATOM      1  O   HOH     1       6.119  47.573  87.066  0.00  0.00    +0.000 OA
ENDROOT
TORSDOF 0
REMARK  Name = ../refined-set-2016/3qfy/3qfy_pocket.pdb
REMARK  180 active torsions:
REMARK  status: ('A' for Active; 'I' for Inactive)
REMARK    1  A    between atoms: _1  and  _3
REMARK    2  A    between atoms: _3  and  _4
REMARK    3  A    between atoms: _3  and  _6
REMARK    4  A    between atoms: _6  and  _7
REMARK    5  A    between atoms: _7  and  _8
REMARK    6  A    between atoms: _8  and  _9
REMARK    7  A    between atoms: _18  and  _20
REMARK    8  A    between atoms: _20  and  _21
REMARK    9  A    between atoms: _20  and  _23
REMARK   10  A    between atoms: _23  and  _24
REMARK   11  A    between atoms: _24  and  _25
REMARK   12  A    between atoms: _28  and  _30
REMARK   13  A    between atoms: _30  and  _31
REMARK   14  A    between atoms: _30  and  _33
REMARK   15  A    between atoms: _33  and  _34
REMARK   16  A    between atoms: _34  and  _35
REMARK   17  A    between atoms: _35  and  _36
REMARK   18  A    between atoms: _45  and  _47
REMARK   19  A    between atoms: _47  and  _48
REMARK   20  A    between atoms: _50  and  _52
REMARK   21  A    between atoms: _52  and  _53
REMARK   22  A    between atoms: _52  and  _55
REMARK   23  A    between atoms: _55  and  _56
REMARK   24  A    between atoms: _62  and  _64
REMARK   25  A    between atoms: _64  and  _65
REMARK   26  A    between atoms: _64  and  _67
REMARK   27  A    between atoms: _67  and  _68
REMARK   28  A    between atoms: _68  and  _69
REMARK   29  A    between atoms: _69  and  _70
REMARK   30  A    between atoms: _79  and  _81
REMARK   31  A    between atoms: _81  and  _82
REMARK   32  A    between atoms: _81  and  _84
REMARK   33  A    between atoms: _84  and  _85
REMARK   34  A    between atoms: _88  and  _90
REMARK   35  A    between atoms: _90  and  _91
REMARK   36  A    between atoms: _90  and  _93
REMARK   37  A    between atoms: _93  and  _94
REMARK   38  A    between atoms: _96  and  _98
REMARK   39  A    between atoms: _98  and  _99
REMARK   40  A    between atoms: _98  and  _101
REMARK   41  A    between atoms: _101  and  _102
REMARK   42  A    between atoms: _102  and  _103
REMARK   43  A    between atoms: _108  and  _110
REMARK   44  A    between atoms: _110  and  _111
REMARK   45  A    between atoms: _110  and  _113
REMARK   46  A    between atoms: _113  and  _114
REMARK   47  A    between atoms: _119  and  _121
REMARK   48  A    between atoms: _121  and  _122
REMARK   49  A    between atoms: _121  and  _124
REMARK   50  A    between atoms: _124  and  _125
REMARK   51  A    between atoms: _128  and  _130
REMARK   52  A    between atoms: _130  and  _131
REMARK   53  A    between atoms: _130  and  _133
REMARK   54  A    between atoms: _133  and  _134
REMARK   55  A    between atoms: _140  and  _142
REMARK   56  A    between atoms: _142  and  _143
REMARK   57  A    between atoms: _142  and  _145
REMARK   58  A    between atoms: _145  and  _146
REMARK   59  A    between atoms: _149  and  _151
REMARK   60  A    between atoms: _151  and  _152
REMARK   61  A    between atoms: _151  and  _154
REMARK   62  A    between atoms: _154  and  _155
REMARK   63  A    between atoms: _158  and  _160
REMARK   64  A    between atoms: _160  and  _161
REMARK   65  A    between atoms: _160  and  _163
REMARK   66  A    between atoms: _163  and  _164
REMARK   67  A    between atoms: _174  and  _176
REMARK   68  A    between atoms: _176  and  _177
REMARK   69  A    between atoms: _180  and  _182
REMARK   70  A    between atoms: _182  and  _183
REMARK   71  A    between atoms: _182  and  _185
REMARK   72  A    between atoms: _185  and  _186
REMARK   73  A    between atoms: _189  and  _191
REMARK   74  A    between atoms: _191  and  _192
REMARK   75  A    between atoms: _191  and  _194
REMARK   76  A    between atoms: _194  and  _195
REMARK   77  A    between atoms: _205  and  _207
REMARK   78  A    between atoms: _207  and  _208
REMARK   79  A    between atoms: _207  and  _210
REMARK   80  A    between atoms: _210  and  _211
REMARK   81  A    between atoms: _216  and  _218
REMARK   82  A    between atoms: _218  and  _219
REMARK   83  A    between atoms: _218  and  _221
REMARK   84  A    between atoms: _221  and  _222
REMARK   85  A    between atoms: _225  and  _227
REMARK   86  A    between atoms: _227  and  _228
REMARK   87  A    between atoms: _227  and  _230
REMARK   88  A    between atoms: _232  and  _234
REMARK   89  A    between atoms: _234  and  _235
REMARK   90  A    between atoms: _234  and  _237
REMARK   91  A    between atoms: _237  and  _238
REMARK   92  A    between atoms: _241  and  _243
REMARK   93  A    between atoms: _243  and  _244
REMARK   94  A    between atoms: _243  and  _246
REMARK   95  A    between atoms: _246  and  _247
REMARK   96  A    between atoms: _252  and  _254
REMARK   97  A    between atoms: _254  and  _255
REMARK   98  A    between atoms: _254  and  _257
REMARK   99  A    between atoms: _257  and  _258
REMARK  100  A    between atoms: _258  and  _259
REMARK  101  A    between atoms: _264  and  _266
REMARK  102  A    between atoms: _266  and  _267
REMARK  103  A    between atoms: _266  and  _269
REMARK  104  A    between atoms: _269  and  _270
REMARK  105  A    between atoms: _276  and  _278
REMARK  106  A    between atoms: _278  and  _279
REMARK  107  A    between atoms: _278  and  _281
REMARK  108  A    between atoms: _281  and  _282
REMARK  109  A    between atoms: _282  and  _283
REMARK  110  A    between atoms: _283  and  _284
REMARK  111  A    between atoms: _293  and  _295
REMARK  112  A    between atoms: _295  and  _296
REMARK  113  A    between atoms: _295  and  _298
REMARK  114  A    between atoms: _298  and  _299
REMARK  115  A    between atoms: _299  and  _300
REMARK  116  A    between atoms: _303  and  _305
REMARK  117  A    between atoms: _305  and  _306
REMARK  118  A    between atoms: _305  and  _308
REMARK  119  A    between atoms: _308  and  _309
REMARK  120  A    between atoms: _312  and  _314
REMARK  121  A    between atoms: _314  and  _315
REMARK  122  A    between atoms: _314  and  _317
REMARK  123  A    between atoms: _317  and  _318
REMARK  124  A    between atoms: _323  and  _324
REMARK  125  A    between atoms: _326  and  _328
REMARK  126  A    between atoms: _328  and  _329
REMARK  127  A    between atoms: _328  and  _331
REMARK  128  A    between atoms: _331  and  _332
REMARK  129  A    between atoms: _332  and  _333
REMARK  130  A    between atoms: _333  and  _334
REMARK  131  A    between atoms: _334  and  _335
REMARK  132  A    between atoms: _339  and  _341
REMARK  133  A    between atoms: _341  and  _342
REMARK  134  A    between atoms: _341  and  _344
REMARK  135  A    between atoms: _344  and  _345
REMARK  136  A    between atoms: _345  and  _346
REMARK  137  A    between atoms: _349  and  _351
REMARK  138  A    between atoms: _351  and  _352
REMARK  139  A    between atoms: _351  and  _354
REMARK  140  A    between atoms: _354  and  _355
REMARK  141  A    between atoms: _361  and  _363
REMARK  142  A    between atoms: _363  and  _364
REMARK  143  A    between atoms: _363  and  _366
REMARK  144  A    between atoms: _366  and  _367
REMARK  145  A    between atoms: _372  and  _374
REMARK  146  A    between atoms: _374  and  _375
REMARK  147  A    between atoms: _374  and  _377
REMARK  148  A    between atoms: _377  and  _378
REMARK  149  A    between atoms: _383  and  _385
REMARK  150  A    between atoms: _385  and  _386
REMARK  151  A    between atoms: _385  and  _388
REMARK  152  A    between atoms: _388  and  _389
REMARK  153  A    between atoms: _399  and  _401
REMARK  154  A    between atoms: _401  and  _402
REMARK  155  A    between atoms: _401  and  _404
REMARK  156  A    between atoms: _404  and  _405
REMARK  157  A    between atoms: _405  and  _406
REMARK  158  A    between atoms: _411  and  _413
REMARK  159  A    between atoms: _413  and  _414
REMARK  160  A    between atoms: _413  and  _416
REMARK  161  A    between atoms: _416  and  _417
REMARK  162  A    between atoms: _422  and  _424
REMARK  163  A    between atoms: _424  and  _425
REMARK  164  A    between atoms: _424  and  _427
REMARK  165  A    between atoms: _427  and  _428
REMARK  166  A    between atoms: _431  and  _433
REMARK  167  A    between atoms: _433  and  _434
REMARK  168  A    between atoms: _433  and  _436
REMARK  169  A    between atoms: _436  and  _437
REMARK  170  A    between atoms: _440  and  _442
REMARK  171  A    between atoms: _442  and  _443
REMARK  172  A    between atoms: _445  and  _447
REMARK  173  A    between atoms: _447  and  _448
REMARK  174  A    between atoms: _447  and  _450
REMARK  175  A    between atoms: _450  and  _451
REMARK  176  A    between atoms: _461  and  _463
REMARK  177  A    between atoms: _463  and  _464
REMARK  178  A    between atoms: _463  and  _466
REMARK  179  A    between atoms: _466  and  _467
REMARK  180  A    between atoms: _467  and  _468
REMARK                            x       y       z     vdW  Elec       q    Type
REMARK                         _______ _______ _______ _____ _____    ______ ____
ROOT
ATOM      1  O   HOH     1      11.506  46.687  76.174  0.00  0.00    +0.000 OA
ENDROOT
TORSDOF 0
REMARK  Name = ../refined-set-2016/3qfy/3qfy_pocket.pdb
REMARK  180 active torsions:
REMARK  status: ('A' for Active; 'I' for Inactive)
REMARK    1  A    between atoms: _1  and  _3
REMARK    2  A    between atoms: _3  and  _4
REMARK    3  A    between atoms: _3  and  _6
REMARK    4  A    between atoms: _6  and  _7
REMARK    5  A    between atoms: _7  and  _8
REMARK    6  A    between atoms: _8  and  _9
REMARK    7  A    between atoms: _18  and  _20
REMARK    8  A    between atoms: _20  and  _21
REMARK    9  A    between atoms: _20  and  _23
REMARK   10  A    between atoms: _23  and  _24
REMARK   11  A    between atoms: _24  and  _25
REMARK   12  A    between atoms: _28  and  _30
REMARK   13  A    between atoms: _30  and  _31
REMARK   14  A    between atoms: _30  and  _33
REMARK   15  A    between atoms: _33  and  _34
REMARK   16  A    between atoms: _34  and  _35
REMARK   17  A    between atoms: _35  and  _36
REMARK   18  A    between atoms: _45  and  _47
REMARK   19  A    between atoms: _47  and  _48
REMARK   20  A    between atoms: _50  and  _52
REMARK   21  A    between atoms: _52  and  _53
REMARK   22  A    between atoms: _52  and  _55
REMARK   23  A    between atoms: _55  and  _56
REMARK   24  A    between atoms: _62  and  _64
REMARK   25  A    between atoms: _64  and  _65
REMARK   26  A    between atoms: _64  and  _67
REMARK   27  A    between atoms: _67  and  _68
REMARK   28  A    between atoms: _68  and  _69
REMARK   29  A    between atoms: _69  and  _70
REMARK   30  A    between atoms: _79  and  _81
REMARK   31  A    between atoms: _81  and  _82
REMARK   32  A    between atoms: _81  and  _84
REMARK   33  A    between atoms: _84  and  _85
REMARK   34  A    between atoms: _88  and  _90
REMARK   35  A    between atoms: _90  and  _91
REMARK   36  A    between atoms: _90  and  _93
REMARK   37  A    between atoms: _93  and  _94
REMARK   38  A    between atoms: _96  and  _98
REMARK   39  A    between atoms: _98  and  _99
REMARK   40  A    between atoms: _98  and  _101
REMARK   41  A    between atoms: _101  and  _102
REMARK   42  A    between atoms: _102  and  _103
REMARK   43  A    between atoms: _108  and  _110
REMARK   44  A    between atoms: _110  and  _111
REMARK   45  A    between atoms: _110  and  _113
REMARK   46  A    between atoms: _113  and  _114
REMARK   47  A    between atoms: _119  and  _121
REMARK   48  A    between atoms: _121  and  _122
REMARK   49  A    between atoms: _121  and  _124
REMARK   50  A    between atoms: _124  and  _125
REMARK   51  A    between atoms: _128  and  _130
REMARK   52  A    between atoms: _130  and  _131
REMARK   53  A    between atoms: _130  and  _133
REMARK   54  A    between atoms: _133  and  _134
REMARK   55  A    between atoms: _140  and  _142
REMARK   56  A    between atoms: _142  and  _143
REMARK   57  A    between atoms: _142  and  _145
REMARK   58  A    between atoms: _145  and  _146
REMARK   59  A    between atoms: _149  and  _151
REMARK   60  A    between atoms: _151  and  _152
REMARK   61  A    between atoms: _151  and  _154
REMARK   62  A    between atoms: _154  and  _155
REMARK   63  A    between atoms: _158  and  _160
REMARK   64  A    between atoms: _160  and  _161
REMARK   65  A    between atoms: _160  and  _163
REMARK   66  A    between atoms: _163  and  _164
REMARK   67  A    between atoms: _174  and  _176
REMARK   68  A    between atoms: _176  and  _177
REMARK   69  A    between atoms: _180  and  _182
REMARK   70  A    between atoms: _182  and  _183
REMARK   71  A    between atoms: _182  and  _185
REMARK   72  A    between atoms: _185  and  _186
REMARK   73  A    between atoms: _189  and  _191
REMARK   74  A    between atoms: _191  and  _192
REMARK   75  A    between atoms: _191  and  _194
REMARK   76  A    between atoms: _194  and  _195
REMARK   77  A    between atoms: _205  and  _207
REMARK   78  A    between atoms: _207  and  _208
REMARK   79  A    between atoms: _207  and  _210
REMARK   80  A    between atoms: _210  and  _211
REMARK   81  A    between atoms: _216  and  _218
REMARK   82  A    between atoms: _218  and  _219
REMARK   83  A    between atoms: _218  and  _221
REMARK   84  A    between atoms: _221  and  _222
REMARK   85  A    between atoms: _225  and  _227
REMARK   86  A    between atoms: _227  and  _228
REMARK   87  A    between atoms: _227  and  _230
REMARK   88  A    between atoms: _232  and  _234
REMARK   89  A    between atoms: _234  and  _235
REMARK   90  A    between atoms: _234  and  _237
REMARK   91  A    between atoms: _237  and  _238
REMARK   92  A    between atoms: _241  and  _243
REMARK   93  A    between atoms: _243  and  _244
REMARK   94  A    between atoms: _243  and  _246
REMARK   95  A    between atoms: _246  and  _247
REMARK   96  A    between atoms: _252  and  _254
REMARK   97  A    between atoms: _254  and  _255
REMARK   98  A    between atoms: _254  and  _257
REMARK   99  A    between atoms: _257  and  _258
REMARK  100  A    between atoms: _258  and  _259
REMARK  101  A    between atoms: _264  and  _266
REMARK  102  A    between atoms: _266  and  _267
REMARK  103  A    between atoms: _266  and  _269
REMARK  104  A    between atoms: _269  and  _270
REMARK  105  A    between atoms: _276  and  _278
REMARK  106  A    between atoms: _278  and  _279
REMARK  107  A    between atoms: _278  and  _281
REMARK  108  A    between atoms: _281  and  _282
REMARK  109  A    between atoms: _282  and  _283
REMARK  110  A    between atoms: _283  and  _284
REMARK  111  A    between atoms: _293  and  _295
REMARK  112  A    between atoms: _295  and  _296
REMARK  113  A    between atoms: _295  and  _298
REMARK  114  A    between atoms: _298  and  _299
REMARK  115  A    between atoms: _299  and  _300
REMARK  116  A    between atoms: _303  and  _305
REMARK  117  A    between atoms: _305  and  _306
REMARK  118  A    between atoms: _305  and  _308
REMARK  119  A    between atoms: _308  and  _309
REMARK  120  A    between atoms: _312  and  _314
REMARK  121  A    between atoms: _314  and  _315
REMARK  122  A    between atoms: _314  and  _317
REMARK  123  A    between atoms: _317  and  _318
REMARK  124  A    between atoms: _323  and  _324
REMARK  125  A    between atoms: _326  and  _328
REMARK  126  A    between atoms: _328  and  _329
REMARK  127  A    between atoms: _328  and  _331
REMARK  128  A    between atoms: _331  and  _332
REMARK  129  A    between atoms: _332  and  _333
REMARK  130  A    between atoms: _333  and  _334
REMARK  131  A    between atoms: _334  and  _335
REMARK  132  A    between atoms: _339  and  _341
REMARK  133  A    between atoms: _341  and  _342
REMARK  134  A    between atoms: _341  and  _344
REMARK  135  A    between atoms: _344  and  _345
REMARK  136  A    between atoms: _345  and  _346
REMARK  137  A    between atoms: _349  and  _351
REMARK  138  A    between atoms: _351  and  _352
REMARK  139  A    between atoms: _351  and  _354
REMARK  140  A    between atoms: _354  and  _355
REMARK  141  A    between atoms: _361  and  _363
REMARK  142  A    between atoms: _363  and  _364
REMARK  143  A    between atoms: _363  and  _366
REMARK  144  A    between atoms: _366  and  _367
REMARK  145  A    between atoms: _372  and  _374
REMARK  146  A    between atoms: _374  and  _375
REMARK  147  A    between atoms: _374  and  _377
REMARK  148  A    between atoms: _377  and  _378
REMARK  149  A    between atoms: _383  and  _385
REMARK  150  A    between atoms: _385  and  _386
REMARK  151  A    between atoms: _385  and  _388
REMARK  152  A    between atoms: _388  and  _389
REMARK  153  A    between atoms: _399  and  _401
REMARK  154  A    between atoms: _401  and  _402
REMARK  155  A    between atoms: _401  and  _404
REMARK  156  A    between atoms: _404  and  _405
REMARK  157  A    between atoms: _405  and  _406
REMARK  158  A    between atoms: _411  and  _413
REMARK  159  A    between atoms: _413  and  _414
REMARK  160  A    between atoms: _413  and  _416
REMARK  161  A    between atoms: _416  and  _417
REMARK  162  A    between atoms: _422  and  _424
REMARK  163  A    between atoms: _424  and  _425
REMARK  164  A    between atoms: _424  and  _427
REMARK  165  A    between atoms: _427  and  _428
REMARK  166  A    between atoms: _431  and  _433
REMARK  167  A    between atoms: _433  and  _434
REMARK  168  A    between atoms: _433  and  _436
REMARK  169  A    between atoms: _436  and  _437
REMARK  170  A    between atoms: _440  and  _442
REMARK  171  A    between atoms: _442  and  _443
REMARK  172  A    between atoms: _445  and  _447
REMARK  173  A    between atoms: _447  and  _448
REMARK  174  A    between atoms: _447  and  _450
REMARK  175  A    between atoms: _450  and  _451
REMARK  176  A    between atoms: _461  and  _463
REMARK  177  A    between atoms: _463  and  _464
REMARK  178  A    between atoms: _463  and  _466
REMARK  179  A    between atoms: _466  and  _467
REMARK  180  A    between atoms: _467  and  _468
REMARK                            x       y       z     vdW  Elec       q    Type
REMARK                         _______ _______ _______ _____ _____    ______ ____
ROOT
ATOM      1  O   HOH     1      10.812  48.707  85.378  0.00  0.00    +0.000 OA
ENDROOT
TORSDOF 0
REMARK  Name = ../refined-set-2016/3qfy/3qfy_pocket.pdb
REMARK  180 active torsions:
REMARK  status: ('A' for Active; 'I' for Inactive)
REMARK    1  A    between atoms: _1  and  _3
REMARK    2  A    between atoms: _3  and  _4
REMARK    3  A    between atoms: _3  and  _6
REMARK    4  A    between atoms: _6  and  _7
REMARK    5  A    between atoms: _7  and  _8
REMARK    6  A    between atoms: _8  and  _9
REMARK    7  A    between atoms: _18  and  _20
REMARK    8  A    between atoms: _20  and  _21
REMARK    9  A    between atoms: _20  and  _23
REMARK   10  A    between atoms: _23  and  _24
REMARK   11  A    between atoms: _24  and  _25
REMARK   12  A    between atoms: _28  and  _30
REMARK   13  A    between atoms: _30  and  _31
REMARK   14  A    between atoms: _30  and  _33
REMARK   15  A    between atoms: _33  and  _34
REMARK   16  A    between atoms: _34  and  _35
REMARK   17  A    between atoms: _35  and  _36
REMARK   18  A    between atoms: _45  and  _47
REMARK   19  A    between atoms: _47  and  _48
REMARK   20  A    between atoms: _50  and  _52
REMARK   21  A    between atoms: _52  and  _53
REMARK   22  A    between atoms: _52  and  _55
REMARK   23  A    between atoms: _55  and  _56
REMARK   24  A    between atoms: _62  and  _64
REMARK   25  A    between atoms: _64  and  _65
REMARK   26  A    between atoms: _64  and  _67
REMARK   27  A    between atoms: _67  and  _68
REMARK   28  A    between atoms: _68  and  _69
REMARK   29  A    between atoms: _69  and  _70
REMARK   30  A    between atoms: _79  and  _81
REMARK   31  A    between atoms: _81  and  _82
REMARK   32  A    between atoms: _81  and  _84
REMARK   33  A    between atoms: _84  and  _85
REMARK   34  A    between atoms: _88  and  _90
REMARK   35  A    between atoms: _90  and  _91
REMARK   36  A    between atoms: _90  and  _93
REMARK   37  A    between atoms: _93  and  _94
REMARK   38  A    between atoms: _96  and  _98
REMARK   39  A    between atoms: _98  and  _99
REMARK   40  A    between atoms: _98  and  _101
REMARK   41  A    between atoms: _101  and  _102
REMARK   42  A    between atoms: _102  and  _103
REMARK   43  A    between atoms: _108  and  _110
REMARK   44  A    between atoms: _110  and  _111
REMARK   45  A    between atoms: _110  and  _113
REMARK   46  A    between atoms: _113  and  _114
REMARK   47  A    between atoms: _119  and  _121
REMARK   48  A    between atoms: _121  and  _122
REMARK   49  A    between atoms: _121  and  _124
REMARK   50  A    between atoms: _124  and  _125
REMARK   51  A    between atoms: _128  and  _130
REMARK   52  A    between atoms: _130  and  _131
REMARK   53  A    between atoms: _130  and  _133
REMARK   54  A    between atoms: _133  and  _134
REMARK   55  A    between atoms: _140  and  _142
REMARK   56  A    between atoms: _142  and  _143
REMARK   57  A    between atoms: _142  and  _145
REMARK   58  A    between atoms: _145  and  _146
REMARK   59  A    between atoms: _149  and  _151
REMARK   60  A    between atoms: _151  and  _152
REMARK   61  A    between atoms: _151  and  _154
REMARK   62  A    between atoms: _154  and  _155
REMARK   63  A    between atoms: _158  and  _160
REMARK   64  A    between atoms: _160  and  _161
REMARK   65  A    between atoms: _160  and  _163
REMARK   66  A    between atoms: _163  and  _164
REMARK   67  A    between atoms: _174  and  _176
REMARK   68  A    between atoms: _176  and  _177
REMARK   69  A    between atoms: _180  and  _182
REMARK   70  A    between atoms: _182  and  _183
REMARK   71  A    between atoms: _182  and  _185
REMARK   72  A    between atoms: _185  and  _186
REMARK   73  A    between atoms: _189  and  _191
REMARK   74  A    between atoms: _191  and  _192
REMARK   75  A    between atoms: _191  and  _194
REMARK   76  A    between atoms: _194  and  _195
REMARK   77  A    between atoms: _205  and  _207
REMARK   78  A    between atoms: _207  and  _208
REMARK   79  A    between atoms: _207  and  _210
REMARK   80  A    between atoms: _210  and  _211
REMARK   81  A    between atoms: _216  and  _218
REMARK   82  A    between atoms: _218  and  _219
REMARK   83  A    between atoms: _218  and  _221
REMARK   84  A    between atoms: _221  and  _222
REMARK   85  A    between atoms: _225  and  _227
REMARK   86  A    between atoms: _227  and  _228
REMARK   87  A    between atoms: _227  and  _230
REMARK   88  A    between atoms: _232  and  _234
REMARK   89  A    between atoms: _234  and  _235
REMARK   90  A    between atoms: _234  and  _237
REMARK   91  A    between atoms: _237  and  _238
REMARK   92  A    between atoms: _241  and  _243
REMARK   93  A    between atoms: _243  and  _244
REMARK   94  A    between atoms: _243  and  _246
REMARK   95  A    between atoms: _246  and  _247
REMARK   96  A    between atoms: _252  and  _254
REMARK   97  A    between atoms: _254  and  _255
REMARK   98  A    between atoms: _254  and  _257
REMARK   99  A    between atoms: _257  and  _258
REMARK  100  A    between atoms: _258  and  _259
REMARK  101  A    between atoms: _264  and  _266
REMARK  102  A    between atoms: _266  and  _267
REMARK  103  A    between atoms: _266  and  _269
REMARK  104  A    between atoms: _269  and  _270
REMARK  105  A    between atoms: _276  and  _278
REMARK  106  A    between atoms: _278  and  _279
REMARK  107  A    between atoms: _278  and  _281
REMARK  108  A    between atoms: _281  and  _282
REMARK  109  A    between atoms: _282  and  _283
REMARK  110  A    between atoms: _283  and  _284
REMARK  111  A    between atoms: _293  and  _295
REMARK  112  A    between atoms: _295  and  _296
REMARK  113  A    between atoms: _295  and  _298
REMARK  114  A    between atoms: _298  and  _299
REMARK  115  A    between atoms: _299  and  _300
REMARK  116  A    between atoms: _303  and  _305
REMARK  117  A    between atoms: _305  and  _306
REMARK  118  A    between atoms: _305  and  _308
REMARK  119  A    between atoms: _308  and  _309
REMARK  120  A    between atoms: _312  and  _314
REMARK  121  A    between atoms: _314  and  _315
REMARK  122  A    between atoms: _314  and  _317
REMARK  123  A    between atoms: _317  and  _318
REMARK  124  A    between atoms: _323  and  _324
REMARK  125  A    between atoms: _326  and  _328
REMARK  126  A    between atoms: _328  and  _329
REMARK  127  A    between atoms: _328  and  _331
REMARK  128  A    between atoms: _331  and  _332
REMARK  129  A    between atoms: _332  and  _333
REMARK  130  A    between atoms: _333  and  _334
REMARK  131  A    between atoms: _334  and  _335
REMARK  132  A    between atoms: _339  and  _341
REMARK  133  A    between atoms: _341  and  _342
REMARK  134  A    between atoms: _341  and  _344
REMARK  135  A    between atoms: _344  and  _345
REMARK  136  A    between atoms: _345  and  _346
REMARK  137  A    between atoms: _349  and  _351
REMARK  138  A    between atoms: _351  and  _352
REMARK  139  A    between atoms: _351  and  _354
REMARK  140  A    between atoms: _354  and  _355
REMARK  141  A    between atoms: _361  and  _363
REMARK  142  A    between atoms: _363  and  _364
REMARK  143  A    between atoms: _363  and  _366
REMARK  144  A    between atoms: _366  and  _367
REMARK  145  A    between atoms: _372  and  _374
REMARK  146  A    between atoms: _374  and  _375
REMARK  147  A    between atoms: _374  and  _377
REMARK  148  A    between atoms: _377  and  _378
REMARK  149  A    between atoms: _383  and  _385
REMARK  150  A    between atoms: _385  and  _386
REMARK  151  A    between atoms: _385  and  _388
REMARK  152  A    between atoms: _388  and  _389
REMARK  153  A    between atoms: _399  and  _401
REMARK  154  A    between atoms: _401  and  _402
REMARK  155  A    between atoms: _401  and  _404
REMARK  156  A    between atoms: _404  and  _405
REMARK  157  A    between atoms: _405  and  _406
REMARK  158  A    between atoms: _411  and  _413
REMARK  159  A    between atoms: _413  and  _414
REMARK  160  A    between atoms: _413  and  _416
REMARK  161  A    between atoms: _416  and  _417
REMARK  162  A    between atoms: _422  and  _424
REMARK  163  A    between atoms: _424  and  _425
REMARK  164  A    between atoms: _424  and  _427
REMARK  165  A    between atoms: _427  and  _428
REMARK  166  A    between atoms: _431  and  _433
REMARK  167  A    between atoms: _433  and  _434
REMARK  168  A    between atoms: _433  and  _436
REMARK  169  A    between atoms: _436  and  _437
REMARK  170  A    between atoms: _440  and  _442
REMARK  171  A    between atoms: _442  and  _443
REMARK  172  A    between atoms: _445  and  _447
REMARK  173  A    between atoms: _447  and  _448
REMARK  174  A    between atoms: _447  and  _450
REMARK  175  A    between atoms: _450  and  _451
REMARK  176  A    between atoms: _461  and  _463
REMARK  177  A    between atoms: _463  and  _464
REMARK  178  A    between atoms: _463  and  _466
REMARK  179  A    between atoms: _466  and  _467
REMARK  180  A    between atoms: _467  and  _468
REMARK                            x       y       z     vdW  Elec       q    Type
REMARK                         _______ _______ _______ _____ _____    ______ ____
ROOT
ATOM      1  O   HOH     1      15.428  43.192  85.974  0.00  0.00    +0.000 OA
ENDROOT
TORSDOF 0
REMARK  Name = ../refined-set-2016/3qfy/3qfy_pocket.pdb
REMARK  180 active torsions:
REMARK  status: ('A' for Active; 'I' for Inactive)
REMARK    1  A    between atoms: _1  and  _3
REMARK    2  A    between atoms: _3  and  _4
REMARK    3  A    between atoms: _3  and  _6
REMARK    4  A    between atoms: _6  and  _7
REMARK    5  A    between atoms: _7  and  _8
REMARK    6  A    between atoms: _8  and  _9
REMARK    7  A    between atoms: _18  and  _20
REMARK    8  A    between atoms: _20  and  _21
REMARK    9  A    between atoms: _20  and  _23
REMARK   10  A    between atoms: _23  and  _24
REMARK   11  A    between atoms: _24  and  _25
REMARK   12  A    between atoms: _28  and  _30
REMARK   13  A    between atoms: _30  and  _31
REMARK   14  A    between atoms: _30  and  _33
REMARK   15  A    between atoms: _33  and  _34
REMARK   16  A    between atoms: _34  and  _35
REMARK   17  A    between atoms: _35  and  _36
REMARK   18  A    between atoms: _45  and  _47
REMARK   19  A    between atoms: _47  and  _48
REMARK   20  A    between atoms: _50  and  _52
REMARK   21  A    between atoms: _52  and  _53
REMARK   22  A    between atoms: _52  and  _55
REMARK   23  A    between atoms: _55  and  _56
REMARK   24  A    between atoms: _62  and  _64
REMARK   25  A    between atoms: _64  and  _65
REMARK   26  A    between atoms: _64  and  _67
REMARK   27  A    between atoms: _67  and  _68
REMARK   28  A    between atoms: _68  and  _69
REMARK   29  A    between atoms: _69  and  _70
REMARK   30  A    between atoms: _79  and  _81
REMARK   31  A    between atoms: _81  and  _82
REMARK   32  A    between atoms: _81  and  _84
REMARK   33  A    between atoms: _84  and  _85
REMARK   34  A    between atoms: _88  and  _90
REMARK   35  A    between atoms: _90  and  _91
REMARK   36  A    between atoms: _90  and  _93
REMARK   37  A    between atoms: _93  and  _94
REMARK   38  A    between atoms: _96  and  _98
REMARK   39  A    between atoms: _98  and  _99
REMARK   40  A    between atoms: _98  and  _101
REMARK   41  A    between atoms: _101  and  _102
REMARK   42  A    between atoms: _102  and  _103
REMARK   43  A    between atoms: _108  and  _110
REMARK   44  A    between atoms: _110  and  _111
REMARK   45  A    between atoms: _110  and  _113
REMARK   46  A    between atoms: _113  and  _114
REMARK   47  A    between atoms: _119  and  _121
REMARK   48  A    between atoms: _121  and  _122
REMARK   49  A    between atoms: _121  and  _124
REMARK   50  A    between atoms: _124  and  _125
REMARK   51  A    between atoms: _128  and  _130
REMARK   52  A    between atoms: _130  and  _131
REMARK   53  A    between atoms: _130  and  _133
REMARK   54  A    between atoms: _133  and  _134
REMARK   55  A    between atoms: _140  and  _142
REMARK   56  A    between atoms: _142  and  _143
REMARK   57  A    between atoms: _142  and  _145
REMARK   58  A    between atoms: _145  and  _146
REMARK   59  A    between atoms: _149  and  _151
REMARK   60  A    between atoms: _151  and  _152
REMARK   61  A    between atoms: _151  and  _154
REMARK   62  A    between atoms: _154  and  _155
REMARK   63  A    between atoms: _158  and  _160
REMARK   64  A    between atoms: _160  and  _161
REMARK   65  A    between atoms: _160  and  _163
REMARK   66  A    between atoms: _163  and  _164
REMARK   67  A    between atoms: _174  and  _176
REMARK   68  A    between atoms: _176  and  _177
REMARK   69  A    between atoms: _180  and  _182
REMARK   70  A    between atoms: _182  and  _183
REMARK   71  A    between atoms: _182  and  _185
REMARK   72  A    between atoms: _185  and  _186
REMARK   73  A    between atoms: _189  and  _191
REMARK   74  A    between atoms: _191  and  _192
REMARK   75  A    between atoms: _191  and  _194
REMARK   76  A    between atoms: _194  and  _195
REMARK   77  A    between atoms: _205  and  _207
REMARK   78  A    between atoms: _207  and  _208
REMARK   79  A    between atoms: _207  and  _210
REMARK   80  A    between atoms: _210  and  _211
REMARK   81  A    between atoms: _216  and  _218
REMARK   82  A    between atoms: _218  and  _219
REMARK   83  A    between atoms: _218  and  _221
REMARK   84  A    between atoms: _221  and  _222
REMARK   85  A    between atoms: _225  and  _227
REMARK   86  A    between atoms: _227  and  _228
REMARK   87  A    between atoms: _227  and  _230
REMARK   88  A    between atoms: _232  and  _234
REMARK   89  A    between atoms: _234  and  _235
REMARK   90  A    between atoms: _234  and  _237
REMARK   91  A    between atoms: _237  and  _238
REMARK   92  A    between atoms: _241  and  _243
REMARK   93  A    between atoms: _243  and  _244
REMARK   94  A    between atoms: _243  and  _246
REMARK   95  A    between atoms: _246  and  _247
REMARK   96  A    between atoms: _252  and  _254
REMARK   97  A    between atoms: _254  and  _255
REMARK   98  A    between atoms: _254  and  _257
REMARK   99  A    between atoms: _257  and  _258
REMARK  100  A    between atoms: _258  and  _259
REMARK  101  A    between atoms: _264  and  _266
REMARK  102  A    between atoms: _266  and  _267
REMARK  103  A    between atoms: _266  and  _269
REMARK  104  A    between atoms: _269  and  _270
REMARK  105  A    between atoms: _276  and  _278
REMARK  106  A    between atoms: _278  and  _279
REMARK  107  A    between atoms: _278  and  _281
REMARK  108  A    between atoms: _281  and  _282
REMARK  109  A    between atoms: _282  and  _283
REMARK  110  A    between atoms: _283  and  _284
REMARK  111  A    between atoms: _293  and  _295
REMARK  112  A    between atoms: _295  and  _296
REMARK  113  A    between atoms: _295  and  _298
REMARK  114  A    between atoms: _298  and  _299
REMARK  115  A    between atoms: _299  and  _300
REMARK  116  A    between atoms: _303  and  _305
REMARK  117  A    between atoms: _305  and  _306
REMARK  118  A    between atoms: _305  and  _308
REMARK  119  A    between atoms: _308  and  _309
REMARK  120  A    between atoms: _312  and  _314
REMARK  121  A    between atoms: _314  and  _315
REMARK  122  A    between atoms: _314  and  _317
REMARK  123  A    between atoms: _317  and  _318
REMARK  124  A    between atoms: _323  and  _324
REMARK  125  A    between atoms: _326  and  _328
REMARK  126  A    between atoms: _328  and  _329
REMARK  127  A    between atoms: _328  and  _331
REMARK  128  A    between atoms: _331  and  _332
REMARK  129  A    between atoms: _332  and  _333
REMARK  130  A    between atoms: _333  and  _334
REMARK  131  A    between atoms: _334  and  _335
REMARK  132  A    between atoms: _339  and  _341
REMARK  133  A    between atoms: _341  and  _342
REMARK  134  A    between atoms: _341  and  _344
REMARK  135  A    between atoms: _344  and  _345
REMARK  136  A    between atoms: _345  and  _346
REMARK  137  A    between atoms: _349  and  _351
REMARK  138  A    between atoms: _351  and  _352
REMARK  139  A    between atoms: _351  and  _354
REMARK  140  A    between atoms: _354  and  _355
REMARK  141  A    between atoms: _361  and  _363
REMARK  142  A    between atoms: _363  and  _364
REMARK  143  A    between atoms: _363  and  _366
REMARK  144  A    between atoms: _366  and  _367
REMARK  145  A    between atoms: _372  and  _374
REMARK  146  A    between atoms: _374  and  _375
REMARK  147  A    between atoms: _374  and  _377
REMARK  148  A    between atoms: _377  and  _378
REMARK  149  A    between atoms: _383  and  _385
REMARK  150  A    between atoms: _385  and  _386
REMARK  151  A    between atoms: _385  and  _388
REMARK  152  A    between atoms: _388  and  _389
REMARK  153  A    between atoms: _399  and  _401
REMARK  154  A    between atoms: _401  and  _402
REMARK  155  A    between atoms: _401  and  _404
REMARK  156  A    between atoms: _404  and  _405
REMARK  157  A    between atoms: _405  and  _406
REMARK  158  A    between atoms: _411  and  _413
REMARK  159  A    between atoms: _413  and  _414
REMARK  160  A    between atoms: _413  and  _416
REMARK  161  A    between atoms: _416  and  _417
REMARK  162  A    between atoms: _422  and  _424
REMARK  163  A    between atoms: _424  and  _425
REMARK  164  A    between atoms: _424  and  _427
REMARK  165  A    between atoms: _427  and  _428
REMARK  166  A    between atoms: _431  and  _433
REMARK  167  A    between atoms: _433  and  _434
REMARK  168  A    between atoms: _433  and  _436
REMARK  169  A    between atoms: _436  and  _437
REMARK  170  A    between atoms: _440  and  _442
REMARK  171  A    between atoms: _442  and  _443
REMARK  172  A    between atoms: _445  and  _447
REMARK  173  A    between atoms: _447  and  _448
REMARK  174  A    between atoms: _447  and  _450
REMARK  175  A    between atoms: _450  and  _451
REMARK  176  A    between atoms: _461  and  _463
REMARK  177  A    between atoms: _463  and  _464
REMARK  178  A    between atoms: _463  and  _466
REMARK  179  A    between atoms: _466  and  _467
REMARK  180  A    between atoms: _467  and  _468
REMARK                            x       y       z     vdW  Elec       q    Type
REMARK                         _______ _______ _______ _____ _____    ______ ____
ROOT
ATOM      1  O   HOH     1      14.368  39.690  78.997  0.00  0.00    +0.000 OA
ENDROOT
TORSDOF 0
REMARK  Name = ../refined-set-2016/3qfy/3qfy_pocket.pdb
REMARK  180 active torsions:
REMARK  status: ('A' for Active; 'I' for Inactive)
REMARK    1  A    between atoms: _1  and  _3
REMARK    2  A    between atoms: _3  and  _4
REMARK    3  A    between atoms: _3  and  _6
REMARK    4  A    between atoms: _6  and  _7
REMARK    5  A    between atoms: _7  and  _8
REMARK    6  A    between atoms: _8  and  _9
REMARK    7  A    between atoms: _18  and  _20
REMARK    8  A    between atoms: _20  and  _21
REMARK    9  A    between atoms: _20  and  _23
REMARK   10  A    between atoms: _23  and  _24
REMARK   11  A    between atoms: _24  and  _25
REMARK   12  A    between atoms: _28  and  _30
REMARK   13  A    between atoms: _30  and  _31
REMARK   14  A    between atoms: _30  and  _33
REMARK   15  A    between atoms: _33  and  _34
REMARK   16  A    between atoms: _34  and  _35
REMARK   17  A    between atoms: _35  and  _36
REMARK   18  A    between atoms: _45  and  _47
REMARK   19  A    between atoms: _47  and  _48
REMARK   20  A    between atoms: _50  and  _52
REMARK   21  A    between atoms: _52  and  _53
REMARK   22  A    between atoms: _52  and  _55
REMARK   23  A    between atoms: _55  and  _56
REMARK   24  A    between atoms: _62  and  _64
REMARK   25  A    between atoms: _64  and  _65
REMARK   26  A    between atoms: _64  and  _67
REMARK   27  A    between atoms: _67  and  _68
REMARK   28  A    between atoms: _68  and  _69
REMARK   29  A    between atoms: _69  and  _70
REMARK   30  A    between atoms: _79  and  _81
REMARK   31  A    between atoms: _81  and  _82
REMARK   32  A    between atoms: _81  and  _84
REMARK   33  A    between atoms: _84  and  _85
REMARK   34  A    between atoms: _88  and  _90
REMARK   35  A    between atoms: _90  and  _91
REMARK   36  A    between atoms: _90  and  _93
REMARK   37  A    between atoms: _93  and  _94
REMARK   38  A    between atoms: _96  and  _98
REMARK   39  A    between atoms: _98  and  _99
REMARK   40  A    between atoms: _98  and  _101
REMARK   41  A    between atoms: _101  and  _102
REMARK   42  A    between atoms: _102  and  _103
REMARK   43  A    between atoms: _108  and  _110
REMARK   44  A    between atoms: _110  and  _111
REMARK   45  A    between atoms: _110  and  _113
REMARK   46  A    between atoms: _113  and  _114
REMARK   47  A    between atoms: _119  and  _121
REMARK   48  A    between atoms: _121  and  _122
REMARK   49  A    between atoms: _121  and  _124
REMARK   50  A    between atoms: _124  and  _125
REMARK   51  A    between atoms: _128  and  _130
REMARK   52  A    between atoms: _130  and  _131
REMARK   53  A    between atoms: _130  and  _133
REMARK   54  A    between atoms: _133  and  _134
REMARK   55  A    between atoms: _140  and  _142
REMARK   56  A    between atoms: _142  and  _143
REMARK   57  A    between atoms: _142  and  _145
REMARK   58  A    between atoms: _145  and  _146
REMARK   59  A    between atoms: _149  and  _151
REMARK   60  A    between atoms: _151  and  _152
REMARK   61  A    between atoms: _151  and  _154
REMARK   62  A    between atoms: _154  and  _155
REMARK   63  A    between atoms: _158  and  _160
REMARK   64  A    between atoms: _160  and  _161
REMARK   65  A    between atoms: _160  and  _163
REMARK   66  A    between atoms: _163  and  _164
REMARK   67  A    between atoms: _174  and  _176
REMARK   68  A    between atoms: _176  and  _177
REMARK   69  A    between atoms: _180  and  _182
REMARK   70  A    between atoms: _182  and  _183
REMARK   71  A    between atoms: _182  and  _185
REMARK   72  A    between atoms: _185  and  _186
REMARK   73  A    between atoms: _189  and  _191
REMARK   74  A    between atoms: _191  and  _192
REMARK   75  A    between atoms: _191  and  _194
REMARK   76  A    between atoms: _194  and  _195
REMARK   77  A    between atoms: _205  and  _207
REMARK   78  A    between atoms: _207  and  _208
REMARK   79  A    between atoms: _207  and  _210
REMARK   80  A    between atoms: _210  and  _211
REMARK   81  A    between atoms: _216  and  _218
REMARK   82  A    between atoms: _218  and  _219
REMARK   83  A    between atoms: _218  and  _221
REMARK   84  A    between atoms: _221  and  _222
REMARK   85  A    between atoms: _225  and  _227
REMARK   86  A    between atoms: _227  and  _228
REMARK   87  A    between atoms: _227  and  _230
REMARK   88  A    between atoms: _232  and  _234
REMARK   89  A    between atoms: _234  and  _235
REMARK   90  A    between atoms: _234  and  _237
REMARK   91  A    between atoms: _237  and  _238
REMARK   92  A    between atoms: _241  and  _243
REMARK   93  A    between atoms: _243  and  _244
REMARK   94  A    between atoms: _243  and  _246
REMARK   95  A    between atoms: _246  and  _247
REMARK   96  A    between atoms: _252  and  _254
REMARK   97  A    between atoms: _254  and  _255
REMARK   98  A    between atoms: _254  and  _257
REMARK   99  A    between atoms: _257  and  _258
REMARK  100  A    between atoms: _258  and  _259
REMARK  101  A    between atoms: _264  and  _266
REMARK  102  A    between atoms: _266  and  _267
REMARK  103  A    between atoms: _266  and  _269
REMARK  104  A    between atoms: _269  and  _270
REMARK  105  A    between atoms: _276  and  _278
REMARK  106  A    between atoms: _278  and  _279
REMARK  107  A    between atoms: _278  and  _281
REMARK  108  A    between atoms: _281  and  _282
REMARK  109  A    between atoms: _282  and  _283
REMARK  110  A    between atoms: _283  and  _284
REMARK  111  A    between atoms: _293  and  _295
REMARK  112  A    between atoms: _295  and  _296
REMARK  113  A    between atoms: _295  and  _298
REMARK  114  A    between atoms: _298  and  _299
REMARK  115  A    between atoms: _299  and  _300
REMARK  116  A    between atoms: _303  and  _305
REMARK  117  A    between atoms: _305  and  _306
REMARK  118  A    between atoms: _305  and  _308
REMARK  119  A    between atoms: _308  and  _309
REMARK  120  A    between atoms: _312  and  _314
REMARK  121  A    between atoms: _314  and  _315
REMARK  122  A    between atoms: _314  and  _317
REMARK  123  A    between atoms: _317  and  _318
REMARK  124  A    between atoms: _323  and  _324
REMARK  125  A    between atoms: _326  and  _328
REMARK  126  A    between atoms: _328  and  _329
REMARK  127  A    between atoms: _328  and  _331
REMARK  128  A    between atoms: _331  and  _332
REMARK  129  A    between atoms: _332  and  _333
REMARK  130  A    between atoms: _333  and  _334
REMARK  131  A    between atoms: _334  and  _335
REMARK  132  A    between atoms: _339  and  _341
REMARK  133  A    between atoms: _341  and  _342
REMARK  134  A    between atoms: _341  and  _344
REMARK  135  A    between atoms: _344  and  _345
REMARK  136  A    between atoms: _345  and  _346
REMARK  137  A    between atoms: _349  and  _351
REMARK  138  A    between atoms: _351  and  _352
REMARK  139  A    between atoms: _351  and  _354
REMARK  140  A    between atoms: _354  and  _355
REMARK  141  A    between atoms: _361  and  _363
REMARK  142  A    between atoms: _363  and  _364
REMARK  143  A    between atoms: _363  and  _366
REMARK  144  A    between atoms: _366  and  _367
REMARK  145  A    between atoms: _372  and  _374
REMARK  146  A    between atoms: _374  and  _375
REMARK  147  A    between atoms: _374  and  _377
REMARK  148  A    between atoms: _377  and  _378
REMARK  149  A    between atoms: _383  and  _385
REMARK  150  A    between atoms: _385  and  _386
REMARK  151  A    between atoms: _385  and  _388
REMARK  152  A    between atoms: _388  and  _389
REMARK  153  A    between atoms: _399  and  _401
REMARK  154  A    between atoms: _401  and  _402
REMARK  155  A    between atoms: _401  and  _404
REMARK  156  A    between atoms: _404  and  _405
REMARK  157  A    between atoms: _405  and  _406
REMARK  158  A    between atoms: _411  and  _413
REMARK  159  A    between atoms: _413  and  _414
REMARK  160  A    between atoms: _413  and  _416
REMARK  161  A    between atoms: _416  and  _417
REMARK  162  A    between atoms: _422  and  _424
REMARK  163  A    between atoms: _424  and  _425
REMARK  164  A    between atoms: _424  and  _427
REMARK  165  A    between atoms: _427  and  _428
REMARK  166  A    between atoms: _431  and  _433
REMARK  167  A    between atoms: _433  and  _434
REMARK  168  A    between atoms: _433  and  _436
REMARK  169  A    between atoms: _436  and  _437
REMARK  170  A    between atoms: _440  and  _442
REMARK  171  A    between atoms: _442  and  _443
REMARK  172  A    between atoms: _445  and  _447
REMARK  173  A    between atoms: _447  and  _448
REMARK  174  A    between atoms: _447  and  _450
REMARK  175  A    between atoms: _450  and  _451
REMARK  176  A    between atoms: _461  and  _463
REMARK  177  A    between atoms: _463  and  _464
REMARK  178  A    between atoms: _463  and  _466
REMARK  179  A    between atoms: _466  and  _467
REMARK  180  A    between atoms: _467  and  _468
REMARK                            x       y       z     vdW  Elec       q    Type
REMARK                         _______ _______ _______ _____ _____    ______ ____
ROOT
ATOM      1  O   HOH     1      10.929  46.022  81.002  0.00  0.00    +0.000 OA
ENDROOT
TORSDOF 0
REMARK  Name = ../refined-set-2016/3qfy/3qfy_pocket.pdb
REMARK  180 active torsions:
REMARK  status: ('A' for Active; 'I' for Inactive)
REMARK    1  A    between atoms: _1  and  _3
REMARK    2  A    between atoms: _3  and  _4
REMARK    3  A    between atoms: _3  and  _6
REMARK    4  A    between atoms: _6  and  _7
REMARK    5  A    between atoms: _7  and  _8
REMARK    6  A    between atoms: _8  and  _9
REMARK    7  A    between atoms: _18  and  _20
REMARK    8  A    between atoms: _20  and  _21
REMARK    9  A    between atoms: _20  and  _23
REMARK   10  A    between atoms: _23  and  _24
REMARK   11  A    between atoms: _24  and  _25
REMARK   12  A    between atoms: _28  and  _30
REMARK   13  A    between atoms: _30  and  _31
REMARK   14  A    between atoms: _30  and  _33
REMARK   15  A    between atoms: _33  and  _34
REMARK   16  A    between atoms: _34  and  _35
REMARK   17  A    between atoms: _35  and  _36
REMARK   18  A    between atoms: _45  and  _47
REMARK   19  A    between atoms: _47  and  _48
REMARK   20  A    between atoms: _50  and  _52
REMARK   21  A    between atoms: _52  and  _53
REMARK   22  A    between atoms: _52  and  _55
REMARK   23  A    between atoms: _55  and  _56
REMARK   24  A    between atoms: _62  and  _64
REMARK   25  A    between atoms: _64  and  _65
REMARK   26  A    between atoms: _64  and  _67
REMARK   27  A    between atoms: _67  and  _68
REMARK   28  A    between atoms: _68  and  _69
REMARK   29  A    between atoms: _69  and  _70
REMARK   30  A    between atoms: _79  and  _81
REMARK   31  A    between atoms: _81  and  _82
REMARK   32  A    between atoms: _81  and  _84
REMARK   33  A    between atoms: _84  and  _85
REMARK   34  A    between atoms: _88  and  _90
REMARK   35  A    between atoms: _90  and  _91
REMARK   36  A    between atoms: _90  and  _93
REMARK   37  A    between atoms: _93  and  _94
REMARK   38  A    between atoms: _96  and  _98
REMARK   39  A    between atoms: _98  and  _99
REMARK   40  A    between atoms: _98  and  _101
REMARK   41  A    between atoms: _101  and  _102
REMARK   42  A    between atoms: _102  and  _103
REMARK   43  A    between atoms: _108  and  _110
REMARK   44  A    between atoms: _110  and  _111
REMARK   45  A    between atoms: _110  and  _113
REMARK   46  A    between atoms: _113  and  _114
REMARK   47  A    between atoms: _119  and  _121
REMARK   48  A    between atoms: _121  and  _122
REMARK   49  A    between atoms: _121  and  _124
REMARK   50  A    between atoms: _124  and  _125
REMARK   51  A    between atoms: _128  and  _130
REMARK   52  A    between atoms: _130  and  _131
REMARK   53  A    between atoms: _130  and  _133
REMARK   54  A    between atoms: _133  and  _134
REMARK   55  A    between atoms: _140  and  _142
REMARK   56  A    between atoms: _142  and  _143
REMARK   57  A    between atoms: _142  and  _145
REMARK   58  A    between atoms: _145  and  _146
REMARK   59  A    between atoms: _149  and  _151
REMARK   60  A    between atoms: _151  and  _152
REMARK   61  A    between atoms: _151  and  _154
REMARK   62  A    between atoms: _154  and  _155
REMARK   63  A    between atoms: _158  and  _160
REMARK   64  A    between atoms: _160  and  _161
REMARK   65  A    between atoms: _160  and  _163
REMARK   66  A    between atoms: _163  and  _164
REMARK   67  A    between atoms: _174  and  _176
REMARK   68  A    between atoms: _176  and  _177
REMARK   69  A    between atoms: _180  and  _182
REMARK   70  A    between atoms: _182  and  _183
REMARK   71  A    between atoms: _182  and  _185
REMARK   72  A    between atoms: _185  and  _186
REMARK   73  A    between atoms: _189  and  _191
REMARK   74  A    between atoms: _191  and  _192
REMARK   75  A    between atoms: _191  and  _194
REMARK   76  A    between atoms: _194  and  _195
REMARK   77  A    between atoms: _205  and  _207
REMARK   78  A    between atoms: _207  and  _208
REMARK   79  A    between atoms: _207  and  _210
REMARK   80  A    between atoms: _210  and  _211
REMARK   81  A    between atoms: _216  and  _218
REMARK   82  A    between atoms: _218  and  _219
REMARK   83  A    between atoms: _218  and  _221
REMARK   84  A    between atoms: _221  and  _222
REMARK   85  A    between atoms: _225  and  _227
REMARK   86  A    between atoms: _227  and  _228
REMARK   87  A    between atoms: _227  and  _230
REMARK   88  A    between atoms: _232  and  _234
REMARK   89  A    between atoms: _234  and  _235
REMARK   90  A    between atoms: _234  and  _237
REMARK   91  A    between atoms: _237  and  _238
REMARK   92  A    between atoms: _241  and  _243
REMARK   93  A    between atoms: _243  and  _244
REMARK   94  A    between atoms: _243  and  _246
REMARK   95  A    between atoms: _246  and  _247
REMARK   96  A    between atoms: _252  and  _254
REMARK   97  A    between atoms: _254  and  _255
REMARK   98  A    between atoms: _254  and  _257
REMARK   99  A    between atoms: _257  and  _258
REMARK  100  A    between atoms: _258  and  _259
REMARK  101  A    between atoms: _264  and  _266
REMARK  102  A    between atoms: _266  and  _267
REMARK  103  A    between atoms: _266  and  _269
REMARK  104  A    between atoms: _269  and  _270
REMARK  105  A    between atoms: _276  and  _278
REMARK  106  A    between atoms: _278  and  _279
REMARK  107  A    between atoms: _278  and  _281
REMARK  108  A    between atoms: _281  and  _282
REMARK  109  A    between atoms: _282  and  _283
REMARK  110  A    between atoms: _283  and  _284
REMARK  111  A    between atoms: _293  and  _295
REMARK  112  A    between atoms: _295  and  _296
REMARK  113  A    between atoms: _295  and  _298
REMARK  114  A    between atoms: _298  and  _299
REMARK  115  A    between atoms: _299  and  _300
REMARK  116  A    between atoms: _303  and  _305
REMARK  117  A    between atoms: _305  and  _306
REMARK  118  A    between atoms: _305  and  _308
REMARK  119  A    between atoms: _308  and  _309
REMARK  120  A    between atoms: _312  and  _314
REMARK  121  A    between atoms: _314  and  _315
REMARK  122  A    between atoms: _314  and  _317
REMARK  123  A    between atoms: _317  and  _318
REMARK  124  A    between atoms: _323  and  _324
REMARK  125  A    between atoms: _326  and  _328
REMARK  126  A    between atoms: _328  and  _329
REMARK  127  A    between atoms: _328  and  _331
REMARK  128  A    between atoms: _331  and  _332
REMARK  129  A    between atoms: _332  and  _333
REMARK  130  A    between atoms: _333  and  _334
REMARK  131  A    between atoms: _334  and  _335
REMARK  132  A    between atoms: _339  and  _341
REMARK  133  A    between atoms: _341  and  _342
REMARK  134  A    between atoms: _341  and  _344
REMARK  135  A    between atoms: _344  and  _345
REMARK  136  A    between atoms: _345  and  _346
REMARK  137  A    between atoms: _349  and  _351
REMARK  138  A    between atoms: _351  and  _352
REMARK  139  A    between atoms: _351  and  _354
REMARK  140  A    between atoms: _354  and  _355
REMARK  141  A    between atoms: _361  and  _363
REMARK  142  A    between atoms: _363  and  _364
REMARK  143  A    between atoms: _363  and  _366
REMARK  144  A    between atoms: _366  and  _367
REMARK  145  A    between atoms: _372  and  _374
REMARK  146  A    between atoms: _374  and  _375
REMARK  147  A    between atoms: _374  and  _377
REMARK  148  A    between atoms: _377  and  _378
REMARK  149  A    between atoms: _383  and  _385
REMARK  150  A    between atoms: _385  and  _386
REMARK  151  A    between atoms: _385  and  _388
REMARK  152  A    between atoms: _388  and  _389
REMARK  153  A    between atoms: _399  and  _401
REMARK  154  A    between atoms: _401  and  _402
REMARK  155  A    between atoms: _401  and  _404
REMARK  156  A    between atoms: _404  and  _405
REMARK  157  A    between atoms: _405  and  _406
REMARK  158  A    between atoms: _411  and  _413
REMARK  159  A    between atoms: _413  and  _414
REMARK  160  A    between atoms: _413  and  _416
REMARK  161  A    between atoms: _416  and  _417
REMARK  162  A    between atoms: _422  and  _424
REMARK  163  A    between atoms: _424  and  _425
REMARK  164  A    between atoms: _424  and  _427
REMARK  165  A    between atoms: _427  and  _428
REMARK  166  A    between atoms: _431  and  _433
REMARK  167  A    between atoms: _433  and  _434
REMARK  168  A    between atoms: _433  and  _436
REMARK  169  A    between atoms: _436  and  _437
REMARK  170  A    between atoms: _440  and  _442
REMARK  171  A    between atoms: _442  and  _443
REMARK  172  A    between atoms: _445  and  _447
REMARK  173  A    between atoms: _447  and  _448
REMARK  174  A    between atoms: _447  and  _450
REMARK  175  A    between atoms: _450  and  _451
REMARK  176  A    between atoms: _461  and  _463
REMARK  177  A    between atoms: _463  and  _464
REMARK  178  A    between atoms: _463  and  _466
REMARK  179  A    between atoms: _466  and  _467
REMARK  180  A    between atoms: _467  and  _468
REMARK                            x       y       z     vdW  Elec       q    Type
REMARK                         _______ _______ _______ _____ _____    ______ ____
ROOT
ATOM      1  O   HOH     1      13.120  48.583  89.585  0.00  0.00    +0.000 OA
ENDROOT
TORSDOF 0
REMARK  Name = ../refined-set-2016/3qfy/3qfy_pocket.pdb
REMARK  180 active torsions:
REMARK  status: ('A' for Active; 'I' for Inactive)
REMARK    1  A    between atoms: _1  and  _3
REMARK    2  A    between atoms: _3  and  _4
REMARK    3  A    between atoms: _3  and  _6
REMARK    4  A    between atoms: _6  and  _7
REMARK    5  A    between atoms: _7  and  _8
REMARK    6  A    between atoms: _8  and  _9
REMARK    7  A    between atoms: _18  and  _20
REMARK    8  A    between atoms: _20  and  _21
REMARK    9  A    between atoms: _20  and  _23
REMARK   10  A    between atoms: _23  and  _24
REMARK   11  A    between atoms: _24  and  _25
REMARK   12  A    between atoms: _28  and  _30
REMARK   13  A    between atoms: _30  and  _31
REMARK   14  A    between atoms: _30  and  _33
REMARK   15  A    between atoms: _33  and  _34
REMARK   16  A    between atoms: _34  and  _35
REMARK   17  A    between atoms: _35  and  _36
REMARK   18  A    between atoms: _45  and  _47
REMARK   19  A    between atoms: _47  and  _48
REMARK   20  A    between atoms: _50  and  _52
REMARK   21  A    between atoms: _52  and  _53
REMARK   22  A    between atoms: _52  and  _55
REMARK   23  A    between atoms: _55  and  _56
REMARK   24  A    between atoms: _62  and  _64
REMARK   25  A    between atoms: _64  and  _65
REMARK   26  A    between atoms: _64  and  _67
REMARK   27  A    between atoms: _67  and  _68
REMARK   28  A    between atoms: _68  and  _69
REMARK   29  A    between atoms: _69  and  _70
REMARK   30  A    between atoms: _79  and  _81
REMARK   31  A    between atoms: _81  and  _82
REMARK   32  A    between atoms: _81  and  _84
REMARK   33  A    between atoms: _84  and  _85
REMARK   34  A    between atoms: _88  and  _90
REMARK   35  A    between atoms: _90  and  _91
REMARK   36  A    between atoms: _90  and  _93
REMARK   37  A    between atoms: _93  and  _94
REMARK   38  A    between atoms: _96  and  _98
REMARK   39  A    between atoms: _98  and  _99
REMARK   40  A    between atoms: _98  and  _101
REMARK   41  A    between atoms: _101  and  _102
REMARK   42  A    between atoms: _102  and  _103
REMARK   43  A    between atoms: _108  and  _110
REMARK   44  A    between atoms: _110  and  _111
REMARK   45  A    between atoms: _110  and  _113
REMARK   46  A    between atoms: _113  and  _114
REMARK   47  A    between atoms: _119  and  _121
REMARK   48  A    between atoms: _121  and  _122
REMARK   49  A    between atoms: _121  and  _124
REMARK   50  A    between atoms: _124  and  _125
REMARK   51  A    between atoms: _128  and  _130
REMARK   52  A    between atoms: _130  and  _131
REMARK   53  A    between atoms: _130  and  _133
REMARK   54  A    between atoms: _133  and  _134
REMARK   55  A    between atoms: _140  and  _142
REMARK   56  A    between atoms: _142  and  _143
REMARK   57  A    between atoms: _142  and  _145
REMARK   58  A    between atoms: _145  and  _146
REMARK   59  A    between atoms: _149  and  _151
REMARK   60  A    between atoms: _151  and  _152
REMARK   61  A    between atoms: _151  and  _154
REMARK   62  A    between atoms: _154  and  _155
REMARK   63  A    between atoms: _158  and  _160
REMARK   64  A    between atoms: _160  and  _161
REMARK   65  A    between atoms: _160  and  _163
REMARK   66  A    between atoms: _163  and  _164
REMARK   67  A    between atoms: _174  and  _176
REMARK   68  A    between atoms: _176  and  _177
REMARK   69  A    between atoms: _180  and  _182
REMARK   70  A    between atoms: _182  and  _183
REMARK   71  A    between atoms: _182  and  _185
REMARK   72  A    between atoms: _185  and  _186
REMARK   73  A    between atoms: _189  and  _191
REMARK   74  A    between atoms: _191  and  _192
REMARK   75  A    between atoms: _191  and  _194
REMARK   76  A    between atoms: _194  and  _195
REMARK   77  A    between atoms: _205  and  _207
REMARK   78  A    between atoms: _207  and  _208
REMARK   79  A    between atoms: _207  and  _210
REMARK   80  A    between atoms: _210  and  _211
REMARK   81  A    between atoms: _216  and  _218
REMARK   82  A    between atoms: _218  and  _219
REMARK   83  A    between atoms: _218  and  _221
REMARK   84  A    between atoms: _221  and  _222
REMARK   85  A    between atoms: _225  and  _227
REMARK   86  A    between atoms: _227  and  _228
REMARK   87  A    between atoms: _227  and  _230
REMARK   88  A    between atoms: _232  and  _234
REMARK   89  A    between atoms: _234  and  _235
REMARK   90  A    between atoms: _234  and  _237
REMARK   91  A    between atoms: _237  and  _238
REMARK   92  A    between atoms: _241  and  _243
REMARK   93  A    between atoms: _243  and  _244
REMARK   94  A    between atoms: _243  and  _246
REMARK   95  A    between atoms: _246  and  _247
REMARK   96  A    between atoms: _252  and  _254
REMARK   97  A    between atoms: _254  and  _255
REMARK   98  A    between atoms: _254  and  _257
REMARK   99  A    between atoms: _257  and  _258
REMARK  100  A    between atoms: _258  and  _259
REMARK  101  A    between atoms: _264  and  _266
REMARK  102  A    between atoms: _266  and  _267
REMARK  103  A    between atoms: _266  and  _269
REMARK  104  A    between atoms: _269  and  _270
REMARK  105  A    between atoms: _276  and  _278
REMARK  106  A    between atoms: _278  and  _279
REMARK  107  A    between atoms: _278  and  _281
REMARK  108  A    between atoms: _281  and  _282
REMARK  109  A    between atoms: _282  and  _283
REMARK  110  A    between atoms: _283  and  _284
REMARK  111  A    between atoms: _293  and  _295
REMARK  112  A    between atoms: _295  and  _296
REMARK  113  A    between atoms: _295  and  _298
REMARK  114  A    between atoms: _298  and  _299
REMARK  115  A    between atoms: _299  and  _300
REMARK  116  A    between atoms: _303  and  _305
REMARK  117  A    between atoms: _305  and  _306
REMARK  118  A    between atoms: _305  and  _308
REMARK  119  A    between atoms: _308  and  _309
REMARK  120  A    between atoms: _312  and  _314
REMARK  121  A    between atoms: _314  and  _315
REMARK  122  A    between atoms: _314  and  _317
REMARK  123  A    between atoms: _317  and  _318
REMARK  124  A    between atoms: _323  and  _324
REMARK  125  A    between atoms: _326  and  _328
REMARK  126  A    between atoms: _328  and  _329
REMARK  127  A    between atoms: _328  and  _331
REMARK  128  A    between atoms: _331  and  _332
REMARK  129  A    between atoms: _332  and  _333
REMARK  130  A    between atoms: _333  and  _334
REMARK  131  A    between atoms: _334  and  _335
REMARK  132  A    between atoms: _339  and  _341
REMARK  133  A    between atoms: _341  and  _342
REMARK  134  A    between atoms: _341  and  _344
REMARK  135  A    between atoms: _344  and  _345
REMARK  136  A    between atoms: _345  and  _346
REMARK  137  A    between atoms: _349  and  _351
REMARK  138  A    between atoms: _351  and  _352
REMARK  139  A    between atoms: _351  and  _354
REMARK  140  A    between atoms: _354  and  _355
REMARK  141  A    between atoms: _361  and  _363
REMARK  142  A    between atoms: _363  and  _364
REMARK  143  A    between atoms: _363  and  _366
REMARK  144  A    between atoms: _366  and  _367
REMARK  145  A    between atoms: _372  and  _374
REMARK  146  A    between atoms: _374  and  _375
REMARK  147  A    between atoms: _374  and  _377
REMARK  148  A    between atoms: _377  and  _378
REMARK  149  A    between atoms: _383  and  _385
REMARK  150  A    between atoms: _385  and  _386
REMARK  151  A    between atoms: _385  and  _388
REMARK  152  A    between atoms: _388  and  _389
REMARK  153  A    between atoms: _399  and  _401
REMARK  154  A    between atoms: _401  and  _402
REMARK  155  A    between atoms: _401  and  _404
REMARK  156  A    between atoms: _404  and  _405
REMARK  157  A    between atoms: _405  and  _406
REMARK  158  A    between atoms: _411  and  _413
REMARK  159  A    between atoms: _413  and  _414
REMARK  160  A    between atoms: _413  and  _416
REMARK  161  A    between atoms: _416  and  _417
REMARK  162  A    between atoms: _422  and  _424
REMARK  163  A    between atoms: _424  and  _425
REMARK  164  A    between atoms: _424  and  _427
REMARK  165  A    between atoms: _427  and  _428
REMARK  166  A    between atoms: _431  and  _433
REMARK  167  A    between atoms: _433  and  _434
REMARK  168  A    between atoms: _433  and  _436
REMARK  169  A    between atoms: _436  and  _437
REMARK  170  A    between atoms: _440  and  _442
REMARK  171  A    between atoms: _442  and  _443
REMARK  172  A    between atoms: _445  and  _447
REMARK  173  A    between atoms: _447  and  _448
REMARK  174  A    between atoms: _447  and  _450
REMARK  175  A    between atoms: _450  and  _451
REMARK  176  A    between atoms: _461  and  _463
REMARK  177  A    between atoms: _463  and  _464
REMARK  178  A    between atoms: _463  and  _466
REMARK  179  A    between atoms: _466  and  _467
REMARK  180  A    between atoms: _467  and  _468
REMARK                            x       y       z     vdW  Elec       q    Type
REMARK                         _______ _______ _______ _____ _____    ______ ____
ROOT
ATOM      1  O   HOH     1       8.682  45.800  79.381  0.00  0.00    +0.000 OA
ENDROOT
TORSDOF 0
REMARK  Name = ../refined-set-2016/3qfy/3qfy_pocket.pdb
REMARK  180 active torsions:
REMARK  status: ('A' for Active; 'I' for Inactive)
REMARK    1  A    between atoms: _1  and  _3
REMARK    2  A    between atoms: _3  and  _4
REMARK    3  A    between atoms: _3  and  _6
REMARK    4  A    between atoms: _6  and  _7
REMARK    5  A    between atoms: _7  and  _8
REMARK    6  A    between atoms: _8  and  _9
REMARK    7  A    between atoms: _18  and  _20
REMARK    8  A    between atoms: _20  and  _21
REMARK    9  A    between atoms: _20  and  _23
REMARK   10  A    between atoms: _23  and  _24
REMARK   11  A    between atoms: _24  and  _25
REMARK   12  A    between atoms: _28  and  _30
REMARK   13  A    between atoms: _30  and  _31
REMARK   14  A    between atoms: _30  and  _33
REMARK   15  A    between atoms: _33  and  _34
REMARK   16  A    between atoms: _34  and  _35
REMARK   17  A    between atoms: _35  and  _36
REMARK   18  A    between atoms: _45  and  _47
REMARK   19  A    between atoms: _47  and  _48
REMARK   20  A    between atoms: _50  and  _52
REMARK   21  A    between atoms: _52  and  _53
REMARK   22  A    between atoms: _52  and  _55
REMARK   23  A    between atoms: _55  and  _56
REMARK   24  A    between atoms: _62  and  _64
REMARK   25  A    between atoms: _64  and  _65
REMARK   26  A    between atoms: _64  and  _67
REMARK   27  A    between atoms: _67  and  _68
REMARK   28  A    between atoms: _68  and  _69
REMARK   29  A    between atoms: _69  and  _70
REMARK   30  A    between atoms: _79  and  _81
REMARK   31  A    between atoms: _81  and  _82
REMARK   32  A    between atoms: _81  and  _84
REMARK   33  A    between atoms: _84  and  _85
REMARK   34  A    between atoms: _88  and  _90
REMARK   35  A    between atoms: _90  and  _91
REMARK   36  A    between atoms: _90  and  _93
REMARK   37  A    between atoms: _93  and  _94
REMARK   38  A    between atoms: _96  and  _98
REMARK   39  A    between atoms: _98  and  _99
REMARK   40  A    between atoms: _98  and  _101
REMARK   41  A    between atoms: _101  and  _102
REMARK   42  A    between atoms: _102  and  _103
REMARK   43  A    between atoms: _108  and  _110
REMARK   44  A    between atoms: _110  and  _111
REMARK   45  A    between atoms: _110  and  _113
REMARK   46  A    between atoms: _113  and  _114
REMARK   47  A    between atoms: _119  and  _121
REMARK   48  A    between atoms: _121  and  _122
REMARK   49  A    between atoms: _121  and  _124
REMARK   50  A    between atoms: _124  and  _125
REMARK   51  A    between atoms: _128  and  _130
REMARK   52  A    between atoms: _130  and  _131
REMARK   53  A    between atoms: _130  and  _133
REMARK   54  A    between atoms: _133  and  _134
REMARK   55  A    between atoms: _140  and  _142
REMARK   56  A    between atoms: _142  and  _143
REMARK   57  A    between atoms: _142  and  _145
REMARK   58  A    between atoms: _145  and  _146
REMARK   59  A    between atoms: _149  and  _151
REMARK   60  A    between atoms: _151  and  _152
REMARK   61  A    between atoms: _151  and  _154
REMARK   62  A    between atoms: _154  and  _155
REMARK   63  A    between atoms: _158  and  _160
REMARK   64  A    between atoms: _160  and  _161
REMARK   65  A    between atoms: _160  and  _163
REMARK   66  A    between atoms: _163  and  _164
REMARK   67  A    between atoms: _174  and  _176
REMARK   68  A    between atoms: _176  and  _177
REMARK   69  A    between atoms: _180  and  _182
REMARK   70  A    between atoms: _182  and  _183
REMARK   71  A    between atoms: _182  and  _185
REMARK   72  A    between atoms: _185  and  _186
REMARK   73  A    between atoms: _189  and  _191
REMARK   74  A    between atoms: _191  and  _192
REMARK   75  A    between atoms: _191  and  _194
REMARK   76  A    between atoms: _194  and  _195
REMARK   77  A    between atoms: _205  and  _207
REMARK   78  A    between atoms: _207  and  _208
REMARK   79  A    between atoms: _207  and  _210
REMARK   80  A    between atoms: _210  and  _211
REMARK   81  A    between atoms: _216  and  _218
REMARK   82  A    between atoms: _218  and  _219
REMARK   83  A    between atoms: _218  and  _221
REMARK   84  A    between atoms: _221  and  _222
REMARK   85  A    between atoms: _225  and  _227
REMARK   86  A    between atoms: _227  and  _228
REMARK   87  A    between atoms: _227  and  _230
REMARK   88  A    between atoms: _232  and  _234
REMARK   89  A    between atoms: _234  and  _235
REMARK   90  A    between atoms: _234  and  _237
REMARK   91  A    between atoms: _237  and  _238
REMARK   92  A    between atoms: _241  and  _243
REMARK   93  A    between atoms: _243  and  _244
REMARK   94  A    between atoms: _243  and  _246
REMARK   95  A    between atoms: _246  and  _247
REMARK   96  A    between atoms: _252  and  _254
REMARK   97  A    between atoms: _254  and  _255
REMARK   98  A    between atoms: _254  and  _257
REMARK   99  A    between atoms: _257  and  _258
REMARK  100  A    between atoms: _258  and  _259
REMARK  101  A    between atoms: _264  and  _266
REMARK  102  A    between atoms: _266  and  _267
REMARK  103  A    between atoms: _266  and  _269
REMARK  104  A    between atoms: _269  and  _270
REMARK  105  A    between atoms: _276  and  _278
REMARK  106  A    between atoms: _278  and  _279
REMARK  107  A    between atoms: _278  and  _281
REMARK  108  A    between atoms: _281  and  _282
REMARK  109  A    between atoms: _282  and  _283
REMARK  110  A    between atoms: _283  and  _284
REMARK  111  A    between atoms: _293  and  _295
REMARK  112  A    between atoms: _295  and  _296
REMARK  113  A    between atoms: _295  and  _298
REMARK  114  A    between atoms: _298  and  _299
REMARK  115  A    between atoms: _299  and  _300
REMARK  116  A    between atoms: _303  and  _305
REMARK  117  A    between atoms: _305  and  _306
REMARK  118  A    between atoms: _305  and  _308
REMARK  119  A    between atoms: _308  and  _309
REMARK  120  A    between atoms: _312  and  _314
REMARK  121  A    between atoms: _314  and  _315
REMARK  122  A    between atoms: _314  and  _317
REMARK  123  A    between atoms: _317  and  _318
REMARK  124  A    between atoms: _323  and  _324
REMARK  125  A    between atoms: _326  and  _328
REMARK  126  A    between atoms: _328  and  _329
REMARK  127  A    between atoms: _328  and  _331
REMARK  128  A    between atoms: _331  and  _332
REMARK  129  A    between atoms: _332  and  _333
REMARK  130  A    between atoms: _333  and  _334
REMARK  131  A    between atoms: _334  and  _335
REMARK  132  A    between atoms: _339  and  _341
REMARK  133  A    between atoms: _341  and  _342
REMARK  134  A    between atoms: _341  and  _344
REMARK  135  A    between atoms: _344  and  _345
REMARK  136  A    between atoms: _345  and  _346
REMARK  137  A    between atoms: _349  and  _351
REMARK  138  A    between atoms: _351  and  _352
REMARK  139  A    between atoms: _351  and  _354
REMARK  140  A    between atoms: _354  and  _355
REMARK  141  A    between atoms: _361  and  _363
REMARK  142  A    between atoms: _363  and  _364
REMARK  143  A    between atoms: _363  and  _366
REMARK  144  A    between atoms: _366  and  _367
REMARK  145  A    between atoms: _372  and  _374
REMARK  146  A    between atoms: _374  and  _375
REMARK  147  A    between atoms: _374  and  _377
REMARK  148  A    between atoms: _377  and  _378
REMARK  149  A    between atoms: _383  and  _385
REMARK  150  A    between atoms: _385  and  _386
REMARK  151  A    between atoms: _385  and  _388
REMARK  152  A    between atoms: _388  and  _389
REMARK  153  A    between atoms: _399  and  _401
REMARK  154  A    between atoms: _401  and  _402
REMARK  155  A    between atoms: _401  and  _404
REMARK  156  A    between atoms: _404  and  _405
REMARK  157  A    between atoms: _405  and  _406
REMARK  158  A    between atoms: _411  and  _413
REMARK  159  A    between atoms: _413  and  _414
REMARK  160  A    between atoms: _413  and  _416
REMARK  161  A    between atoms: _416  and  _417
REMARK  162  A    between atoms: _422  and  _424
REMARK  163  A    between atoms: _424  and  _425
REMARK  164  A    between atoms: _424  and  _427
REMARK  165  A    between atoms: _427  and  _428
REMARK  166  A    between atoms: _431  and  _433
REMARK  167  A    between atoms: _433  and  _434
REMARK  168  A    between atoms: _433  and  _436
REMARK  169  A    between atoms: _436  and  _437
REMARK  170  A    between atoms: _440  and  _442
REMARK  171  A    between atoms: _442  and  _443
REMARK  172  A    between atoms: _445  and  _447
REMARK  173  A    between atoms: _447  and  _448
REMARK  174  A    between atoms: _447  and  _450
REMARK  175  A    between atoms: _450  and  _451
REMARK  176  A    between atoms: _461  and  _463
REMARK  177  A    between atoms: _463  and  _464
REMARK  178  A    between atoms: _463  and  _466
REMARK  179  A    between atoms: _466  and  _467
REMARK  180  A    between atoms: _467  and  _468
REMARK                            x       y       z     vdW  Elec       q    Type
REMARK                         _______ _______ _______ _____ _____    ______ ____
ROOT
ATOM      1  O   HOH     1       8.958  47.143  86.533  0.00  0.00    +0.000 OA
ENDROOT
TORSDOF 0
