REMARK  Name = ../refined-set-2016/4mrz/4mrz_pocket.pdb
REMARK  109 active torsions:
REMARK  status: ('A' for Active; 'I' for Inactive)
REMARK    1  A    between atoms: _1  and  _3
REMARK    2  A    between atoms: _3  and  _4
REMARK    3  A    between atoms: _3  and  _6
REMARK    4  A    between atoms: _6  and  _7
REMARK    5  A    between atoms: _12  and  _13
REMARK    6  A    between atoms: _15  and  _17
REMARK    7  A    between atoms: _17  and  _18
REMARK    8  A    between atoms: _17  and  _20
REMARK    9  A    between atoms: _20  and  _21
REMARK   10  A    between atoms: _26  and  _28
REMARK   11  A    between atoms: _28  and  _29
REMARK   12  A    between atoms: _28  and  _31
REMARK   13  A    between atoms: _31  and  _32
REMARK   14  A    between atoms: _36  and  NI_273
REMARK   15  A    between atoms: _37  and  _39
REMARK   16  A    between atoms: _39  and  _40
REMARK   17  A    between atoms: _39  and  _42
REMARK   18  A    between atoms: _42  and  _43
REMARK   19  A    between atoms: _46  and  _48
REMARK   20  A    between atoms: _48  and  _49
REMARK   21  A    between atoms: _48  and  _51
REMARK   22  A    between atoms: _51  and  _52
REMARK   23  A    between atoms: _52  and  _54
REMARK   24  A    between atoms: _54  and  NI_273
REMARK   25  A    between atoms: _55  and  _57
REMARK   26  A    between atoms: _57  and  _58
REMARK   27  A    between atoms: _57  and  _60
REMARK   28  A    between atoms: _60  and  _61
REMARK   29  A    between atoms: _64  and  _66
REMARK   30  A    between atoms: _66  and  _67
REMARK   31  A    between atoms: _66  and  _69
REMARK   32  A    between atoms: _71  and  _73
REMARK   33  A    between atoms: _73  and  _74
REMARK   34  A    between atoms: _73  and  _76
REMARK   35  A    between atoms: _76  and  _77
REMARK   36  A    between atoms: _79  and  _81
REMARK   37  A    between atoms: _81  and  _82
REMARK   38  A    between atoms: _81  and  _84
REMARK   39  A    between atoms: _87  and  _89
REMARK   40  A    between atoms: _89  and  _90
REMARK   41  A    between atoms: _89  and  _92
REMARK   42  A    between atoms: _92  and  _93
REMARK   43  A    between atoms: _96  and  _98
REMARK   44  A    between atoms: _98  and  _99
REMARK   45  A    between atoms: _98  and  _101
REMARK   46  A    between atoms: _101  and  _102
REMARK   47  A    between atoms: _105  and  _107
REMARK   48  A    between atoms: _107  and  _108
REMARK   49  A    between atoms: _107  and  _110
REMARK   50  A    between atoms: _110  and  _111
REMARK   51  A    between atoms: _114  and  _116
REMARK   52  A    between atoms: _116  and  _117
REMARK   53  A    between atoms: _120  and  _122
REMARK   54  A    between atoms: _122  and  _123
REMARK   55  A    between atoms: _122  and  _125
REMARK   56  A    between atoms: _125  and  _126
REMARK   57  A    between atoms: _129  and  _131
REMARK   58  A    between atoms: _131  and  _132
REMARK   59  A    between atoms: _131  and  _134
REMARK   60  A    between atoms: _134  and  _135
REMARK   61  A    between atoms: _140  and  _141
REMARK   62  A    between atoms: _143  and  _145
REMARK   63  A    between atoms: _145  and  _146
REMARK   64  A    between atoms: _145  and  _148
REMARK   65  A    between atoms: _148  and  _149
REMARK   66  A    between atoms: _155  and  _157
REMARK   67  A    between atoms: _157  and  _158
REMARK   68  A    between atoms: _157  and  _160
REMARK   69  A    between atoms: _160  and  _161
REMARK   70  A    between atoms: _161  and  _162
REMARK   71  A    between atoms: _164  and  _166
REMARK   72  A    between atoms: _166  and  _167
REMARK   73  A    between atoms: _166  and  _169
REMARK   74  A    between atoms: _172  and  _174
REMARK   75  A    between atoms: _174  and  _175
REMARK   76  A    between atoms: _177  and  _179
REMARK   77  A    between atoms: _179  and  _180
REMARK   78  A    between atoms: _179  and  _182
REMARK   79  A    between atoms: _182  and  _183
REMARK   80  A    between atoms: _183  and  _184
REMARK   81  A    between atoms: _189  and  _191
REMARK   82  A    between atoms: _191  and  _192
REMARK   83  A    between atoms: _191  and  _194
REMARK   84  A    between atoms: _194  and  _195
REMARK   85  A    between atoms: _198  and  _200
REMARK   86  A    between atoms: _200  and  _201
REMARK   87  A    between atoms: _203  and  _205
REMARK   88  A    between atoms: _205  and  _206
REMARK   89  A    between atoms: _205  and  _208
REMARK   90  A    between atoms: _208  and  _209
REMARK   91  A    between atoms: _215  and  _217
REMARK   92  A    between atoms: _217  and  _218
REMARK   93  A    between atoms: _217  and  _220
REMARK   94  A    between atoms: _220  and  _221
REMARK   95  A    between atoms: _226  and  _227
REMARK   96  A    between atoms: _229  and  _231
REMARK   97  A    between atoms: _231  and  _232
REMARK   98  A    between atoms: _231  and  _234
REMARK   99  A    between atoms: _237  and  _239
REMARK  100  A    between atoms: _239  and  _240
REMARK  101  A    between atoms: _243  and  _245
REMARK  102  A    between atoms: _245  and  _246
REMARK  103  A    between atoms: _245  and  _248
REMARK  104  A    between atoms: _248  and  _249
REMARK  105  A    between atoms: _254  and  _255
REMARK  106  A    between atoms: _257  and  _259
REMARK  107  A    between atoms: _259  and  _260
REMARK  108  A    between atoms: _259  and  _262
REMARK  109  A    between atoms: _262  and  _263
REMARK                            x       y       z     vdW  Elec       q    Type
REMARK                         _______ _______ _______ _____ _____    ______ ____
ROOT
ATOM      1  C   TYR A   1      13.763 -28.510 -29.662  0.00  0.00    +0.239 C 
ATOM      2  O   TYR A   1      13.389 -28.773 -28.524  0.00  0.00    -0.274 OA
ATOM      3  N   HIS A   2      14.307 -29.420 -30.482  0.00  0.00    -0.298 N 
ATOM      4  H   HIS A   2      14.704 -29.113 -31.393  0.00  0.00    +0.150 HD
ENDROOT
BRANCH   1   5
ATOM      5  CA  TYR A   1      13.644 -27.070 -30.157  0.00  0.00    +0.149 C 
BRANCH   5   6
ATOM      6  N   TYR A   1      14.866 -26.486 -30.723  0.00  0.00    -0.238 NA
ATOM      7  H   TYR A   1      15.360 -26.969 -31.500  0.00  0.00    +0.142 HD
ENDBRANCH   5   6
BRANCH   5   8
ATOM      8  CB  TYR A   1      12.466 -26.904 -31.107  0.00  0.00    +0.053 C 
BRANCH   8   9
ATOM      9  CG  TYR A   1      11.206 -27.543 -30.559  0.00  0.00    -0.020 A 
ATOM     10  CD2 TYR A   1      10.556 -26.980 -29.468  0.00  0.00    -0.001 A 
ATOM     11  CE2 TYR A   1       9.404 -27.549 -28.940  0.00  0.00    +0.036 A 
ATOM     12  CZ  TYR A   1       8.908 -28.708 -29.490  0.00  0.00    +0.134 A 
ATOM     13  CE1 TYR A   1       9.527 -29.305 -30.572  0.00  0.00    +0.036 A 
ATOM     14  CD1 TYR A   1      10.701 -28.716 -31.104  0.00  0.00    -0.001 A 
BRANCH  12  15
ATOM     15  OH  TYR A   1       7.746 -29.269 -28.983  0.00  0.00    -0.506 OA
ATOM     16  HH  TYR A   1       7.052 -29.282 -29.689  0.00  0.00    +0.292 HD
ENDBRANCH  12  15
ENDBRANCH   8   9
ENDBRANCH   5   8
ENDBRANCH   1   5
BRANCH   3  17
ATOM     17  CA  HIS A   2      14.353 -30.863 -30.113  0.00  0.00    +0.143 C 
BRANCH  17  18
ATOM     18  C   HIS A   2      15.579 -31.144 -29.253  0.00  0.00    +0.227 C 
ATOM     19  O   HIS A   2      16.493 -31.848 -29.658  0.00  0.00    -0.286 OA
ENDBRANCH  17  18
BRANCH  17  20
ATOM     20  CB  HIS A   2      14.314 -31.757 -31.345  0.00  0.00    +0.075 C 
BRANCH  20  21
ATOM     21  CG  HIS A   2      13.005 -31.709 -32.074  0.00  0.00    +0.082 A 
ATOM     22  CD2 HIS A   2      11.822 -32.320 -31.828  0.00  0.00    +0.115 A 
ATOM     23  NE2 HIS A   2      10.941 -31.906 -32.799  0.00  0.00    -0.221 NA
ATOM     24  CE1 HIS A   2      11.565 -31.084 -33.621  0.00  0.00    +0.199 A 
ATOM     25  ND1 HIS A   2      12.812 -30.938 -33.197  0.00  0.00    -0.227 NA
ENDBRANCH  20  21
ENDBRANCH  17  20
ENDBRANCH   3  17
TORSDOF 9
REMARK  Name = ../refined-set-2016/4mrz/4mrz_pocket.pdb
REMARK  109 active torsions:
REMARK  status: ('A' for Active; 'I' for Inactive)
REMARK    1  A    between atoms: _1  and  _3
REMARK    2  A    between atoms: _3  and  _4
REMARK    3  A    between atoms: _3  and  _6
REMARK    4  A    between atoms: _6  and  _7
REMARK    5  A    between atoms: _12  and  _13
REMARK    6  A    between atoms: _15  and  _17
REMARK    7  A    between atoms: _17  and  _18
REMARK    8  A    between atoms: _17  and  _20
REMARK    9  A    between atoms: _20  and  _21
REMARK   10  A    between atoms: _26  and  _28
REMARK   11  A    between atoms: _28  and  _29
REMARK   12  A    between atoms: _28  and  _31
REMARK   13  A    between atoms: _31  and  _32
REMARK   14  A    between atoms: _36  and  NI_273
REMARK   15  A    between atoms: _37  and  _39
REMARK   16  A    between atoms: _39  and  _40
REMARK   17  A    between atoms: _39  and  _42
REMARK   18  A    between atoms: _42  and  _43
REMARK   19  A    between atoms: _46  and  _48
REMARK   20  A    between atoms: _48  and  _49
REMARK   21  A    between atoms: _48  and  _51
REMARK   22  A    between atoms: _51  and  _52
REMARK   23  A    between atoms: _52  and  _54
REMARK   24  A    between atoms: _54  and  NI_273
REMARK   25  A    between atoms: _55  and  _57
REMARK   26  A    between atoms: _57  and  _58
REMARK   27  A    between atoms: _57  and  _60
REMARK   28  A    between atoms: _60  and  _61
REMARK   29  A    between atoms: _64  and  _66
REMARK   30  A    between atoms: _66  and  _67
REMARK   31  A    between atoms: _66  and  _69
REMARK   32  A    between atoms: _71  and  _73
REMARK   33  A    between atoms: _73  and  _74
REMARK   34  A    between atoms: _73  and  _76
REMARK   35  A    between atoms: _76  and  _77
REMARK   36  A    between atoms: _79  and  _81
REMARK   37  A    between atoms: _81  and  _82
REMARK   38  A    between atoms: _81  and  _84
REMARK   39  A    between atoms: _87  and  _89
REMARK   40  A    between atoms: _89  and  _90
REMARK   41  A    between atoms: _89  and  _92
REMARK   42  A    between atoms: _92  and  _93
REMARK   43  A    between atoms: _96  and  _98
REMARK   44  A    between atoms: _98  and  _99
REMARK   45  A    between atoms: _98  and  _101
REMARK   46  A    between atoms: _101  and  _102
REMARK   47  A    between atoms: _105  and  _107
REMARK   48  A    between atoms: _107  and  _108
REMARK   49  A    between atoms: _107  and  _110
REMARK   50  A    between atoms: _110  and  _111
REMARK   51  A    between atoms: _114  and  _116
REMARK   52  A    between atoms: _116  and  _117
REMARK   53  A    between atoms: _120  and  _122
REMARK   54  A    between atoms: _122  and  _123
REMARK   55  A    between atoms: _122  and  _125
REMARK   56  A    between atoms: _125  and  _126
REMARK   57  A    between atoms: _129  and  _131
REMARK   58  A    between atoms: _131  and  _132
REMARK   59  A    between atoms: _131  and  _134
REMARK   60  A    between atoms: _134  and  _135
REMARK   61  A    between atoms: _140  and  _141
REMARK   62  A    between atoms: _143  and  _145
REMARK   63  A    between atoms: _145  and  _146
REMARK   64  A    between atoms: _145  and  _148
REMARK   65  A    between atoms: _148  and  _149
REMARK   66  A    between atoms: _155  and  _157
REMARK   67  A    between atoms: _157  and  _158
REMARK   68  A    between atoms: _157  and  _160
REMARK   69  A    between atoms: _160  and  _161
REMARK   70  A    between atoms: _161  and  _162
REMARK   71  A    between atoms: _164  and  _166
REMARK   72  A    between atoms: _166  and  _167
REMARK   73  A    between atoms: _166  and  _169
REMARK   74  A    between atoms: _172  and  _174
REMARK   75  A    between atoms: _174  and  _175
REMARK   76  A    between atoms: _177  and  _179
REMARK   77  A    between atoms: _179  and  _180
REMARK   78  A    between atoms: _179  and  _182
REMARK   79  A    between atoms: _182  and  _183
REMARK   80  A    between atoms: _183  and  _184
REMARK   81  A    between atoms: _189  and  _191
REMARK   82  A    between atoms: _191  and  _192
REMARK   83  A    between atoms: _191  and  _194
REMARK   84  A    between atoms: _194  and  _195
REMARK   85  A    between atoms: _198  and  _200
REMARK   86  A    between atoms: _200  and  _201
REMARK   87  A    between atoms: _203  and  _205
REMARK   88  A    between atoms: _205  and  _206
REMARK   89  A    between atoms: _205  and  _208
REMARK   90  A    between atoms: _208  and  _209
REMARK   91  A    between atoms: _215  and  _217
REMARK   92  A    between atoms: _217  and  _218
REMARK   93  A    between atoms: _217  and  _220
REMARK   94  A    between atoms: _220  and  _221
REMARK   95  A    between atoms: _226  and  _227
REMARK   96  A    between atoms: _229  and  _231
REMARK   97  A    between atoms: _231  and  _232
REMARK   98  A    between atoms: _231  and  _234
REMARK   99  A    between atoms: _237  and  _239
REMARK  100  A    between atoms: _239  and  _240
REMARK  101  A    between atoms: _243  and  _245
REMARK  102  A    between atoms: _245  and  _246
REMARK  103  A    between atoms: _245  and  _248
REMARK  104  A    between atoms: _248  and  _249
REMARK  105  A    between atoms: _254  and  _255
REMARK  106  A    between atoms: _257  and  _259
REMARK  107  A    between atoms: _259  and  _260
REMARK  108  A    between atoms: _259  and  _262
REMARK  109  A    between atoms: _262  and  _263
REMARK                            x       y       z     vdW  Elec       q    Type
REMARK                         _______ _______ _______ _____ _____    ______ ____
ROOT
ATOM      1  C   LEU A   2       2.528 -30.745 -27.120  0.00  0.00    +0.000 C 
ATOM      2  N   CYS A   3       2.859 -31.082 -25.864  0.00  0.00    +0.000 N 
ATOM      3  H   CYS A   3       3.543 -31.847 -25.695  0.00  0.00    +0.000 HD
ATOM      4  O   LEU A   2       1.941 -29.683 -27.403  0.00  0.00    +0.000 OA
ENDROOT
BRANCH   2   5
ATOM      5  CA  CYS A   3       2.255 -30.369 -24.724  0.00  0.00    +0.000 C 
BRANCH   5   6
ATOM      6  C   CYS A   3       2.618 -28.889 -24.599  0.00  0.00    +0.000 C 
ATOM      7  O   CYS A   3       2.011 -28.192 -23.806  0.00  0.00    +0.000 OA
ATOM      8  N   SER A   4       3.609 -28.398 -25.360  0.00  0.00    +0.000 N 
ATOM      9  H   SER A   4       4.228 -29.041 -25.894  0.00  0.00    +0.000 HD
BRANCH   8  10
ATOM     10  CA  SER A   4       3.812 -26.946 -25.432  0.00  0.00    +0.000 C 
BRANCH  10  11
ATOM     11  C   SER A   4       2.508 -26.217 -25.742  0.00  0.00    +0.000 C 
ATOM     12  O   SER A   4       2.307 -25.095 -25.280  0.00  0.00    +0.000 OA
ATOM     13  N   VAL A   5       1.647 -26.856 -26.525  0.00  0.00    +0.000 N 
ATOM     14  H   VAL A   5       1.889 -27.798 -26.893  0.00  0.00    +0.000 HD
BRANCH  13  15
ATOM     15  CA  VAL A   5       0.359 -26.251 -26.878  0.00  0.00    +0.000 C 
BRANCH  15  16
ATOM     16  C   VAL A   5      -0.667 -26.263 -25.744  0.00  0.00    +0.000 C 
ATOM     17  N   THR A   6      -0.294 -26.826 -24.601  0.00  0.00    +0.000 N 
ATOM     18  H   THR A   6       0.668 -27.212 -24.516  0.00  0.00    +0.000 HD
ATOM     19  O   VAL A   5      -1.792 -25.752 -25.921  0.00  0.00    +0.000 OA
BRANCH  17  20
ATOM     20  CA  THR A   6      -1.214 -26.919 -23.443  0.00  0.00    +0.000 C 
BRANCH  20  21
ATOM     21  CB  THR A   6      -1.342 -28.388 -22.993  0.00  0.00    +0.000 C 
ATOM     22  CG2 THR A   6      -1.790 -29.279 -24.167  0.00  0.00    +0.000 C 
BRANCH  21  23
ATOM     23  OG1 THR A   6      -0.066 -28.846 -22.495  0.00  0.00    +0.000 OA
ATOM     24  HG1 THR A   6       0.612 -28.776 -23.213  0.00  0.00    +0.000 HD
ENDBRANCH  21  23
ENDBRANCH  20  21
BRANCH  20  25
ATOM     25  C   THR A   6      -0.739 -26.047 -22.260  0.00  0.00    +0.000 C 
ATOM     26  O   THR A   6      -1.227 -26.156 -21.121  0.00  0.00    +0.000 OA
ENDBRANCH  20  25
ENDBRANCH  17  20
ENDBRANCH  15  16
BRANCH  15  27
ATOM     27  CB  VAL A   5      -0.254 -26.856 -28.171  0.00  0.00    +0.000 C 
ATOM     28  CG2 VAL A   5      -0.801 -28.259 -27.919  0.00  0.00    +0.000 C 
ATOM     29  CG1 VAL A   5       0.768 -26.826 -29.306  0.00  0.00    +0.000 C 
ENDBRANCH  15  27
ENDBRANCH  13  15
ENDBRANCH  10  11
BRANCH  10  30
ATOM     30  CB  SER A   4       4.869 -26.558 -26.476  0.00  0.00    +0.000 C 
BRANCH  30  31
ATOM     31  OG  SER A   4       4.344 -26.596 -27.796  0.00  0.00    +0.000 OA
ATOM     32  H   SER A   4       4.028 -27.512 -27.998  0.00  0.00    +0.000 HD
ENDBRANCH  30  31
ENDBRANCH  10  30
ENDBRANCH   8  10
ENDBRANCH   5   6
BRANCH   5  33
ATOM     33  CB  CYS A   3       2.467 -31.092 -23.389  0.00  0.00    +0.000 C 
ATOM     34  SG  CYS A   3       4.140 -30.932 -22.738  0.00  0.00    +0.000 S 
ENDBRANCH   5  33
ENDBRANCH   2   5
BRANCH   1  35
ATOM     35  CA  LEU A   2       2.904 -31.719 -28.248  0.00  0.00    +0.000 C 
BRANCH  35  38
ATOM     36  C   UNK A   1       4.754 -33.154 -27.616  0.00  0.00    +0.000 C 
ATOM     37  O   UNK A   1       5.543 -32.220 -27.753  0.00  0.00    +0.000 OA
ATOM     38  N   LEU A   2       3.442 -32.987 -27.782  0.00  0.00    +0.000 N 
ATOM     39  H   LEU A   2       2.794 -33.774 -27.575  0.00  0.00    +0.000 HD
BRANCH  36  40
ATOM     40  C   UNK A   1       5.237 -34.561 -27.217  0.00  0.00    +0.000 C 
BRANCH  40  41
ATOM     41  N   UNK A   1       4.284 -35.169 -26.255  0.00  0.00    +0.000 NA
ATOM     42  H   UNK A   1       3.771 -36.035 -26.519  0.00  0.00    +0.000 HD
ENDBRANCH  40  41
BRANCH  40  43
ATOM     43  C   UNK A   1       5.310 -35.453 -28.457  0.00  0.00    +0.000 C 
BRANCH  43  44
ATOM     44  C   UNK A   1       6.574 -35.253 -29.283  0.00  0.00    +0.000 C 
ATOM     45  O   UNK A   1       6.585 -35.754 -30.437  0.00  0.00    +0.000 OA
BRANCH  44  46
ATOM     46  O   UNK A   1       7.561 -34.625 -28.795  0.00  0.00    +0.000 OA
BRANCH  46  47
ATOM     47 NI   UNK A   1       9.561 -34.648 -29.383  0.00  0.00    +0.000 Ni
ATOM     48  O   UNK A   1       8.903 -35.927 -30.999  0.00  0.00    +0.000 OA
BRANCH  47  52
ATOM     49  C   UNK A   1      11.014 -31.474 -26.915  0.00  0.00    +0.000 A 
ATOM     50  N   UNK A   1       9.684 -31.113 -26.967  0.00  0.00    +0.000 NA
ATOM     51  C   UNK A   1       9.011 -32.042 -27.623  0.00  0.00    +0.000 A 
ATOM     52  N   UNK A   1       9.846 -32.994 -27.998  0.00  0.00    +0.000 N 
ATOM     53  C   UNK A   1      11.109 -32.661 -27.565  0.00  0.00    +0.000 A 
BRANCH  49  54
ATOM     54  C   UNK A   1      12.058 -30.603 -26.273  0.00  0.00    +0.000 C 
BRANCH  54  55
ATOM     55  C   UNK A   1      11.917 -30.472 -24.762  0.00  0.00    +0.000 C 
BRANCH  55  56
ATOM     56  N   UNK A   1      13.095 -29.764 -24.183  0.00  0.00    +0.000 NA
ATOM     57  H   UNK A   1      13.875 -29.464 -24.802  0.00  0.00    +0.000 HD
ENDBRANCH  55  56
BRANCH  55  58
ATOM     58  C   UNK A   1      11.737 -31.856 -24.109  0.00  0.00    +0.000 C 
ATOM     59  O   UNK A   1      10.631 -32.230 -23.691  0.00  0.00    +0.000 OA
ENDBRANCH  55  58
ENDBRANCH  54  55
ENDBRANCH  49  54
ENDBRANCH  47  52
ENDBRANCH  46  47
ENDBRANCH  44  46
ENDBRANCH  43  44
ENDBRANCH  40  43
ENDBRANCH  36  40
ENDBRANCH  35  38
BRANCH  35  60
ATOM     60  CB  LEU A   2       1.647 -31.970 -29.119  0.00  0.00    +0.000 C 
BRANCH  60  61
ATOM     61  CG  LEU A   2       1.811 -32.861 -30.355  0.00  0.00    +0.000 C 
ATOM     62  CD2 LEU A   2       0.485 -32.902 -31.105  0.00  0.00    +0.000 C 
ATOM     63  CD1 LEU A   2       2.944 -32.314 -31.223  0.00  0.00    +0.000 C 
ENDBRANCH  60  61
ENDBRANCH  35  60
ENDBRANCH   1  35
TORSDOF 29
REMARK  Name = ../refined-set-2016/4mrz/4mrz_pocket.pdb
REMARK  109 active torsions:
REMARK  status: ('A' for Active; 'I' for Inactive)
REMARK    1  A    between atoms: _1  and  _3
REMARK    2  A    between atoms: _3  and  _4
REMARK    3  A    between atoms: _3  and  _6
REMARK    4  A    between atoms: _6  and  _7
REMARK    5  A    between atoms: _12  and  _13
REMARK    6  A    between atoms: _15  and  _17
REMARK    7  A    between atoms: _17  and  _18
REMARK    8  A    between atoms: _17  and  _20
REMARK    9  A    between atoms: _20  and  _21
REMARK   10  A    between atoms: _26  and  _28
REMARK   11  A    between atoms: _28  and  _29
REMARK   12  A    between atoms: _28  and  _31
REMARK   13  A    between atoms: _31  and  _32
REMARK   14  A    between atoms: _36  and  NI_273
REMARK   15  A    between atoms: _37  and  _39
REMARK   16  A    between atoms: _39  and  _40
REMARK   17  A    between atoms: _39  and  _42
REMARK   18  A    between atoms: _42  and  _43
REMARK   19  A    between atoms: _46  and  _48
REMARK   20  A    between atoms: _48  and  _49
REMARK   21  A    between atoms: _48  and  _51
REMARK   22  A    between atoms: _51  and  _52
REMARK   23  A    between atoms: _52  and  _54
REMARK   24  A    between atoms: _54  and  NI_273
REMARK   25  A    between atoms: _55  and  _57
REMARK   26  A    between atoms: _57  and  _58
REMARK   27  A    between atoms: _57  and  _60
REMARK   28  A    between atoms: _60  and  _61
REMARK   29  A    between atoms: _64  and  _66
REMARK   30  A    between atoms: _66  and  _67
REMARK   31  A    between atoms: _66  and  _69
REMARK   32  A    between atoms: _71  and  _73
REMARK   33  A    between atoms: _73  and  _74
REMARK   34  A    between atoms: _73  and  _76
REMARK   35  A    between atoms: _76  and  _77
REMARK   36  A    between atoms: _79  and  _81
REMARK   37  A    between atoms: _81  and  _82
REMARK   38  A    between atoms: _81  and  _84
REMARK   39  A    between atoms: _87  and  _89
REMARK   40  A    between atoms: _89  and  _90
REMARK   41  A    between atoms: _89  and  _92
REMARK   42  A    between atoms: _92  and  _93
REMARK   43  A    between atoms: _96  and  _98
REMARK   44  A    between atoms: _98  and  _99
REMARK   45  A    between atoms: _98  and  _101
REMARK   46  A    between atoms: _101  and  _102
REMARK   47  A    between atoms: _105  and  _107
REMARK   48  A    between atoms: _107  and  _108
REMARK   49  A    between atoms: _107  and  _110
REMARK   50  A    between atoms: _110  and  _111
REMARK   51  A    between atoms: _114  and  _116
REMARK   52  A    between atoms: _116  and  _117
REMARK   53  A    between atoms: _120  and  _122
REMARK   54  A    between atoms: _122  and  _123
REMARK   55  A    between atoms: _122  and  _125
REMARK   56  A    between atoms: _125  and  _126
REMARK   57  A    between atoms: _129  and  _131
REMARK   58  A    between atoms: _131  and  _132
REMARK   59  A    between atoms: _131  and  _134
REMARK   60  A    between atoms: _134  and  _135
REMARK   61  A    between atoms: _140  and  _141
REMARK   62  A    between atoms: _143  and  _145
REMARK   63  A    between atoms: _145  and  _146
REMARK   64  A    between atoms: _145  and  _148
REMARK   65  A    between atoms: _148  and  _149
REMARK   66  A    between atoms: _155  and  _157
REMARK   67  A    between atoms: _157  and  _158
REMARK   68  A    between atoms: _157  and  _160
REMARK   69  A    between atoms: _160  and  _161
REMARK   70  A    between atoms: _161  and  _162
REMARK   71  A    between atoms: _164  and  _166
REMARK   72  A    between atoms: _166  and  _167
REMARK   73  A    between atoms: _166  and  _169
REMARK   74  A    between atoms: _172  and  _174
REMARK   75  A    between atoms: _174  and  _175
REMARK   76  A    between atoms: _177  and  _179
REMARK   77  A    between atoms: _179  and  _180
REMARK   78  A    between atoms: _179  and  _182
REMARK   79  A    between atoms: _182  and  _183
REMARK   80  A    between atoms: _183  and  _184
REMARK   81  A    between atoms: _189  and  _191
REMARK   82  A    between atoms: _191  and  _192
REMARK   83  A    between atoms: _191  and  _194
REMARK   84  A    between atoms: _194  and  _195
REMARK   85  A    between atoms: _198  and  _200
REMARK   86  A    between atoms: _200  and  _201
REMARK   87  A    between atoms: _203  and  _205
REMARK   88  A    between atoms: _205  and  _206
REMARK   89  A    between atoms: _205  and  _208
REMARK   90  A    between atoms: _208  and  _209
REMARK   91  A    between atoms: _215  and  _217
REMARK   92  A    between atoms: _217  and  _218
REMARK   93  A    between atoms: _217  and  _220
REMARK   94  A    between atoms: _220  and  _221
REMARK   95  A    between atoms: _226  and  _227
REMARK   96  A    between atoms: _229  and  _231
REMARK   97  A    between atoms: _231  and  _232
REMARK   98  A    between atoms: _231  and  _234
REMARK   99  A    between atoms: _237  and  _239
REMARK  100  A    between atoms: _239  and  _240
REMARK  101  A    between atoms: _243  and  _245
REMARK  102  A    between atoms: _245  and  _246
REMARK  103  A    between atoms: _245  and  _248
REMARK  104  A    between atoms: _248  and  _249
REMARK  105  A    between atoms: _254  and  _255
REMARK  106  A    between atoms: _257  and  _259
REMARK  107  A    between atoms: _259  and  _260
REMARK  108  A    between atoms: _259  and  _262
REMARK  109  A    between atoms: _262  and  _263
REMARK                            x       y       z     vdW  Elec       q    Type
REMARK                         _______ _______ _______ _____ _____    ______ ____
ROOT
ATOM      1  CA  LEU A   1       3.356 -37.850 -36.066  0.00  0.00    +0.133 C 
ENDROOT
BRANCH   1   2
ATOM      2  N   LEU A   1       4.709 -38.396 -35.767  0.00  0.00    -0.239 NA
ATOM      3  H   LEU A   1       5.535 -37.765 -35.733  0.00  0.00    +0.142 HD
ENDBRANCH   1   2
BRANCH   1   4
ATOM      4  C   LEU A   1       2.679 -38.494 -37.273  0.00  0.00    +0.224 C 
ATOM      5  O   LEU A   1       1.426 -38.524 -37.343  0.00  0.00    -0.287 OA
ENDBRANCH   1   4
BRANCH   1   6
ATOM      6  CB  LEU A   1       3.380 -36.320 -36.196  0.00  0.00    +0.025 C 
BRANCH   6   7
ATOM      7  CG  LEU A   1       3.481 -35.547 -34.882  0.00  0.00    +0.002 C 
ATOM      8  CD2 LEU A   1       2.185 -35.789 -34.020  0.00  0.00    +0.000 C 
ATOM      9  CD1 LEU A   1       3.672 -34.070 -35.186  0.00  0.00    +0.000 C 
ENDBRANCH   6   7
ENDBRANCH   1   6
TORSDOF 4
REMARK  Name = ../refined-set-2016/4mrz/4mrz_pocket.pdb
REMARK  109 active torsions:
REMARK  status: ('A' for Active; 'I' for Inactive)
REMARK    1  A    between atoms: _1  and  _3
REMARK    2  A    between atoms: _3  and  _4
REMARK    3  A    between atoms: _3  and  _6
REMARK    4  A    between atoms: _6  and  _7
REMARK    5  A    between atoms: _12  and  _13
REMARK    6  A    between atoms: _15  and  _17
REMARK    7  A    between atoms: _17  and  _18
REMARK    8  A    between atoms: _17  and  _20
REMARK    9  A    between atoms: _20  and  _21
REMARK   10  A    between atoms: _26  and  _28
REMARK   11  A    between atoms: _28  and  _29
REMARK   12  A    between atoms: _28  and  _31
REMARK   13  A    between atoms: _31  and  _32
REMARK   14  A    between atoms: _36  and  NI_273
REMARK   15  A    between atoms: _37  and  _39
REMARK   16  A    between atoms: _39  and  _40
REMARK   17  A    between atoms: _39  and  _42
REMARK   18  A    between atoms: _42  and  _43
REMARK   19  A    between atoms: _46  and  _48
REMARK   20  A    between atoms: _48  and  _49
REMARK   21  A    between atoms: _48  and  _51
REMARK   22  A    between atoms: _51  and  _52
REMARK   23  A    between atoms: _52  and  _54
REMARK   24  A    between atoms: _54  and  NI_273
REMARK   25  A    between atoms: _55  and  _57
REMARK   26  A    between atoms: _57  and  _58
REMARK   27  A    between atoms: _57  and  _60
REMARK   28  A    between atoms: _60  and  _61
REMARK   29  A    between atoms: _64  and  _66
REMARK   30  A    between atoms: _66  and  _67
REMARK   31  A    between atoms: _66  and  _69
REMARK   32  A    between atoms: _71  and  _73
REMARK   33  A    between atoms: _73  and  _74
REMARK   34  A    between atoms: _73  and  _76
REMARK   35  A    between atoms: _76  and  _77
REMARK   36  A    between atoms: _79  and  _81
REMARK   37  A    between atoms: _81  and  _82
REMARK   38  A    between atoms: _81  and  _84
REMARK   39  A    between atoms: _87  and  _89
REMARK   40  A    between atoms: _89  and  _90
REMARK   41  A    between atoms: _89  and  _92
REMARK   42  A    between atoms: _92  and  _93
REMARK   43  A    between atoms: _96  and  _98
REMARK   44  A    between atoms: _98  and  _99
REMARK   45  A    between atoms: _98  and  _101
REMARK   46  A    between atoms: _101  and  _102
REMARK   47  A    between atoms: _105  and  _107
REMARK   48  A    between atoms: _107  and  _108
REMARK   49  A    between atoms: _107  and  _110
REMARK   50  A    between atoms: _110  and  _111
REMARK   51  A    between atoms: _114  and  _116
REMARK   52  A    between atoms: _116  and  _117
REMARK   53  A    between atoms: _120  and  _122
REMARK   54  A    between atoms: _122  and  _123
REMARK   55  A    between atoms: _122  and  _125
REMARK   56  A    between atoms: _125  and  _126
REMARK   57  A    between atoms: _129  and  _131
REMARK   58  A    between atoms: _131  and  _132
REMARK   59  A    between atoms: _131  and  _134
REMARK   60  A    between atoms: _134  and  _135
REMARK   61  A    between atoms: _140  and  _141
REMARK   62  A    between atoms: _143  and  _145
REMARK   63  A    between atoms: _145  and  _146
REMARK   64  A    between atoms: _145  and  _148
REMARK   65  A    between atoms: _148  and  _149
REMARK   66  A    between atoms: _155  and  _157
REMARK   67  A    between atoms: _157  and  _158
REMARK   68  A    between atoms: _157  and  _160
REMARK   69  A    between atoms: _160  and  _161
REMARK   70  A    between atoms: _161  and  _162
REMARK   71  A    between atoms: _164  and  _166
REMARK   72  A    between atoms: _166  and  _167
REMARK   73  A    between atoms: _166  and  _169
REMARK   74  A    between atoms: _172  and  _174
REMARK   75  A    between atoms: _174  and  _175
REMARK   76  A    between atoms: _177  and  _179
REMARK   77  A    between atoms: _179  and  _180
REMARK   78  A    between atoms: _179  and  _182
REMARK   79  A    between atoms: _182  and  _183
REMARK   80  A    between atoms: _183  and  _184
REMARK   81  A    between atoms: _189  and  _191
REMARK   82  A    between atoms: _191  and  _192
REMARK   83  A    between atoms: _191  and  _194
REMARK   84  A    between atoms: _194  and  _195
REMARK   85  A    between atoms: _198  and  _200
REMARK   86  A    between atoms: _200  and  _201
REMARK   87  A    between atoms: _203  and  _205
REMARK   88  A    between atoms: _205  and  _206
REMARK   89  A    between atoms: _205  and  _208
REMARK   90  A    between atoms: _208  and  _209
REMARK   91  A    between atoms: _215  and  _217
REMARK   92  A    between atoms: _217  and  _218
REMARK   93  A    between atoms: _217  and  _220
REMARK   94  A    between atoms: _220  and  _221
REMARK   95  A    between atoms: _226  and  _227
REMARK   96  A    between atoms: _229  and  _231
REMARK   97  A    between atoms: _231  and  _232
REMARK   98  A    between atoms: _231  and  _234
REMARK   99  A    between atoms: _237  and  _239
REMARK  100  A    between atoms: _239  and  _240
REMARK  101  A    between atoms: _243  and  _245
REMARK  102  A    between atoms: _245  and  _246
REMARK  103  A    between atoms: _245  and  _248
REMARK  104  A    between atoms: _248  and  _249
REMARK  105  A    between atoms: _254  and  _255
REMARK  106  A    between atoms: _257  and  _259
REMARK  107  A    between atoms: _259  and  _260
REMARK  108  A    between atoms: _259  and  _262
REMARK  109  A    between atoms: _262  and  _263
REMARK                            x       y       z     vdW  Elec       q    Type
REMARK                         _______ _______ _______ _____ _____    ______ ____
ROOT
ATOM      1  CA  THR A   1       3.230 -21.698 -25.808  0.00  0.00    +0.160 C 
ENDROOT
BRANCH   1   2
ATOM      2  N   THR A   1       3.520 -21.152 -24.499  0.00  0.00    -0.237 NA
ATOM      3  H   THR A   1       2.732 -20.992 -23.839  0.00  0.00    +0.142 HD
ENDBRANCH   1   2
BRANCH   1   4
ATOM      4  CB  THR A   1       1.679 -21.794 -25.951  0.00  0.00    +0.134 C 
ATOM      5  CG2 THR A   1       1.263 -22.287 -27.323  0.00  0.00    +0.034 C 
BRANCH   4   6
ATOM      6  OG1 THR A   1       1.181 -22.690 -24.955  0.00  0.00    -0.383 OA
ATOM      7  HG1 THR A   1       1.587 -23.584 -25.084  0.00  0.00    +0.210 HD
ENDBRANCH   4   6
ENDBRANCH   1   4
BRANCH   1   8
ATOM      8  C   THR A   1       3.840 -20.853 -26.948  0.00  0.00    +0.227 C 
ATOM      9  O   THR A   1       4.434 -21.393 -27.899  0.00  0.00    -0.287 OA
ENDBRANCH   1   8
TORSDOF 4
REMARK  Name = ../refined-set-2016/4mrz/4mrz_pocket.pdb
REMARK  109 active torsions:
REMARK  status: ('A' for Active; 'I' for Inactive)
REMARK    1  A    between atoms: _1  and  _3
REMARK    2  A    between atoms: _3  and  _4
REMARK    3  A    between atoms: _3  and  _6
REMARK    4  A    between atoms: _6  and  _7
REMARK    5  A    between atoms: _12  and  _13
REMARK    6  A    between atoms: _15  and  _17
REMARK    7  A    between atoms: _17  and  _18
REMARK    8  A    between atoms: _17  and  _20
REMARK    9  A    between atoms: _20  and  _21
REMARK   10  A    between atoms: _26  and  _28
REMARK   11  A    between atoms: _28  and  _29
REMARK   12  A    between atoms: _28  and  _31
REMARK   13  A    between atoms: _31  and  _32
REMARK   14  A    between atoms: _36  and  NI_273
REMARK   15  A    between atoms: _37  and  _39
REMARK   16  A    between atoms: _39  and  _40
REMARK   17  A    between atoms: _39  and  _42
REMARK   18  A    between atoms: _42  and  _43
REMARK   19  A    between atoms: _46  and  _48
REMARK   20  A    between atoms: _48  and  _49
REMARK   21  A    between atoms: _48  and  _51
REMARK   22  A    between atoms: _51  and  _52
REMARK   23  A    between atoms: _52  and  _54
REMARK   24  A    between atoms: _54  and  NI_273
REMARK   25  A    between atoms: _55  and  _57
REMARK   26  A    between atoms: _57  and  _58
REMARK   27  A    between atoms: _57  and  _60
REMARK   28  A    between atoms: _60  and  _61
REMARK   29  A    between atoms: _64  and  _66
REMARK   30  A    between atoms: _66  and  _67
REMARK   31  A    between atoms: _66  and  _69
REMARK   32  A    between atoms: _71  and  _73
REMARK   33  A    between atoms: _73  and  _74
REMARK   34  A    between atoms: _73  and  _76
REMARK   35  A    between atoms: _76  and  _77
REMARK   36  A    between atoms: _79  and  _81
REMARK   37  A    between atoms: _81  and  _82
REMARK   38  A    between atoms: _81  and  _84
REMARK   39  A    between atoms: _87  and  _89
REMARK   40  A    between atoms: _89  and  _90
REMARK   41  A    between atoms: _89  and  _92
REMARK   42  A    between atoms: _92  and  _93
REMARK   43  A    between atoms: _96  and  _98
REMARK   44  A    between atoms: _98  and  _99
REMARK   45  A    between atoms: _98  and  _101
REMARK   46  A    between atoms: _101  and  _102
REMARK   47  A    between atoms: _105  and  _107
REMARK   48  A    between atoms: _107  and  _108
REMARK   49  A    between atoms: _107  and  _110
REMARK   50  A    between atoms: _110  and  _111
REMARK   51  A    between atoms: _114  and  _116
REMARK   52  A    between atoms: _116  and  _117
REMARK   53  A    between atoms: _120  and  _122
REMARK   54  A    between atoms: _122  and  _123
REMARK   55  A    between atoms: _122  and  _125
REMARK   56  A    between atoms: _125  and  _126
REMARK   57  A    between atoms: _129  and  _131
REMARK   58  A    between atoms: _131  and  _132
REMARK   59  A    between atoms: _131  and  _134
REMARK   60  A    between atoms: _134  and  _135
REMARK   61  A    between atoms: _140  and  _141
REMARK   62  A    between atoms: _143  and  _145
REMARK   63  A    between atoms: _145  and  _146
REMARK   64  A    between atoms: _145  and  _148
REMARK   65  A    between atoms: _148  and  _149
REMARK   66  A    between atoms: _155  and  _157
REMARK   67  A    between atoms: _157  and  _158
REMARK   68  A    between atoms: _157  and  _160
REMARK   69  A    between atoms: _160  and  _161
REMARK   70  A    between atoms: _161  and  _162
REMARK   71  A    between atoms: _164  and  _166
REMARK   72  A    between atoms: _166  and  _167
REMARK   73  A    between atoms: _166  and  _169
REMARK   74  A    between atoms: _172  and  _174
REMARK   75  A    between atoms: _174  and  _175
REMARK   76  A    between atoms: _177  and  _179
REMARK   77  A    between atoms: _179  and  _180
REMARK   78  A    between atoms: _179  and  _182
REMARK   79  A    between atoms: _182  and  _183
REMARK   80  A    between atoms: _183  and  _184
REMARK   81  A    between atoms: _189  and  _191
REMARK   82  A    between atoms: _191  and  _192
REMARK   83  A    between atoms: _191  and  _194
REMARK   84  A    between atoms: _194  and  _195
REMARK   85  A    between atoms: _198  and  _200
REMARK   86  A    between atoms: _200  and  _201
REMARK   87  A    between atoms: _203  and  _205
REMARK   88  A    between atoms: _205  and  _206
REMARK   89  A    between atoms: _205  and  _208
REMARK   90  A    between atoms: _208  and  _209
REMARK   91  A    between atoms: _215  and  _217
REMARK   92  A    between atoms: _217  and  _218
REMARK   93  A    between atoms: _217  and  _220
REMARK   94  A    between atoms: _220  and  _221
REMARK   95  A    between atoms: _226  and  _227
REMARK   96  A    between atoms: _229  and  _231
REMARK   97  A    between atoms: _231  and  _232
REMARK   98  A    between atoms: _231  and  _234
REMARK   99  A    between atoms: _237  and  _239
REMARK  100  A    between atoms: _239  and  _240
REMARK  101  A    between atoms: _243  and  _245
REMARK  102  A    between atoms: _245  and  _246
REMARK  103  A    between atoms: _245  and  _248
REMARK  104  A    between atoms: _248  and  _249
REMARK  105  A    between atoms: _254  and  _255
REMARK  106  A    between atoms: _257  and  _259
REMARK  107  A    between atoms: _259  and  _260
REMARK  108  A    between atoms: _259  and  _262
REMARK  109  A    between atoms: _262  and  _263
REMARK                            x       y       z     vdW  Elec       q    Type
REMARK                         _______ _______ _______ _____ _____    ______ ____
ROOT
ATOM      1  C   THR A   1       7.945 -22.425 -29.036  0.00  0.00    +0.241 C 
ATOM      2  N   ALA A   2       6.836 -21.883 -29.520  0.00  0.00    -0.298 N 
ATOM      3  H   ALA A   2       6.131 -21.476 -28.873  0.00  0.00    +0.150 HD
ATOM      4  O   THR A   1       8.755 -22.973 -29.768  0.00  0.00    -0.274 OA
ENDROOT
BRANCH   2   5
ATOM      5  CA  ALA A   2       6.604 -21.857 -30.958  0.00  0.00    +0.137 C 
ATOM      6  CB  ALA A   2       5.195 -21.249 -31.304  0.00  0.00    +0.030 C 
BRANCH   5   7
ATOM      7  C   ALA A   2       7.743 -21.123 -31.702  0.00  0.00    +0.227 C 
ATOM      8  O   ALA A   2       8.154 -21.558 -32.778  0.00  0.00    -0.286 OA
ENDBRANCH   5   7
ENDBRANCH   2   5
BRANCH   1   9
ATOM      9  CA  THR A   1       8.141 -22.363 -27.510  0.00  0.00    +0.172 C 
BRANCH   9  10
ATOM     10  N   THR A   1       7.691 -21.067 -27.024  0.00  0.00    -0.236 NA
ATOM     11  H   THR A   1       6.853 -21.004 -26.411  0.00  0.00    +0.142 HD
ENDBRANCH   9  10
BRANCH   9  12
ATOM     12  CB  THR A   1       7.363 -23.513 -26.841  0.00  0.00    +0.135 C 
ATOM     13  CG2 THR A   1       7.888 -24.843 -27.323  0.00  0.00    +0.034 C 
BRANCH  12  14
ATOM     14  OG1 THR A   1       7.501 -23.435 -25.416  0.00  0.00    -0.383 OA
ATOM     15  HG1 THR A   1       7.141 -22.569 -25.098  0.00  0.00    +0.210 HD
ENDBRANCH  12  14
ENDBRANCH   9  12
ENDBRANCH   1   9
TORSDOF 6
REMARK  Name = ../refined-set-2016/4mrz/4mrz_pocket.pdb
REMARK  109 active torsions:
REMARK  status: ('A' for Active; 'I' for Inactive)
REMARK    1  A    between atoms: _1  and  _3
REMARK    2  A    between atoms: _3  and  _4
REMARK    3  A    between atoms: _3  and  _6
REMARK    4  A    between atoms: _6  and  _7
REMARK    5  A    between atoms: _12  and  _13
REMARK    6  A    between atoms: _15  and  _17
REMARK    7  A    between atoms: _17  and  _18
REMARK    8  A    between atoms: _17  and  _20
REMARK    9  A    between atoms: _20  and  _21
REMARK   10  A    between atoms: _26  and  _28
REMARK   11  A    between atoms: _28  and  _29
REMARK   12  A    between atoms: _28  and  _31
REMARK   13  A    between atoms: _31  and  _32
REMARK   14  A    between atoms: _36  and  NI_273
REMARK   15  A    between atoms: _37  and  _39
REMARK   16  A    between atoms: _39  and  _40
REMARK   17  A    between atoms: _39  and  _42
REMARK   18  A    between atoms: _42  and  _43
REMARK   19  A    between atoms: _46  and  _48
REMARK   20  A    between atoms: _48  and  _49
REMARK   21  A    between atoms: _48  and  _51
REMARK   22  A    between atoms: _51  and  _52
REMARK   23  A    between atoms: _52  and  _54
REMARK   24  A    between atoms: _54  and  NI_273
REMARK   25  A    between atoms: _55  and  _57
REMARK   26  A    between atoms: _57  and  _58
REMARK   27  A    between atoms: _57  and  _60
REMARK   28  A    between atoms: _60  and  _61
REMARK   29  A    between atoms: _64  and  _66
REMARK   30  A    between atoms: _66  and  _67
REMARK   31  A    between atoms: _66  and  _69
REMARK   32  A    between atoms: _71  and  _73
REMARK   33  A    between atoms: _73  and  _74
REMARK   34  A    between atoms: _73  and  _76
REMARK   35  A    between atoms: _76  and  _77
REMARK   36  A    between atoms: _79  and  _81
REMARK   37  A    between atoms: _81  and  _82
REMARK   38  A    between atoms: _81  and  _84
REMARK   39  A    between atoms: _87  and  _89
REMARK   40  A    between atoms: _89  and  _90
REMARK   41  A    between atoms: _89  and  _92
REMARK   42  A    between atoms: _92  and  _93
REMARK   43  A    between atoms: _96  and  _98
REMARK   44  A    between atoms: _98  and  _99
REMARK   45  A    between atoms: _98  and  _101
REMARK   46  A    between atoms: _101  and  _102
REMARK   47  A    between atoms: _105  and  _107
REMARK   48  A    between atoms: _107  and  _108
REMARK   49  A    between atoms: _107  and  _110
REMARK   50  A    between atoms: _110  and  _111
REMARK   51  A    between atoms: _114  and  _116
REMARK   52  A    between atoms: _116  and  _117
REMARK   53  A    between atoms: _120  and  _122
REMARK   54  A    between atoms: _122  and  _123
REMARK   55  A    between atoms: _122  and  _125
REMARK   56  A    between atoms: _125  and  _126
REMARK   57  A    between atoms: _129  and  _131
REMARK   58  A    between atoms: _131  and  _132
REMARK   59  A    between atoms: _131  and  _134
REMARK   60  A    between atoms: _134  and  _135
REMARK   61  A    between atoms: _140  and  _141
REMARK   62  A    between atoms: _143  and  _145
REMARK   63  A    between atoms: _145  and  _146
REMARK   64  A    between atoms: _145  and  _148
REMARK   65  A    between atoms: _148  and  _149
REMARK   66  A    between atoms: _155  and  _157
REMARK   67  A    between atoms: _157  and  _158
REMARK   68  A    between atoms: _157  and  _160
REMARK   69  A    between atoms: _160  and  _161
REMARK   70  A    between atoms: _161  and  _162
REMARK   71  A    between atoms: _164  and  _166
REMARK   72  A    between atoms: _166  and  _167
REMARK   73  A    between atoms: _166  and  _169
REMARK   74  A    between atoms: _172  and  _174
REMARK   75  A    between atoms: _174  and  _175
REMARK   76  A    between atoms: _177  and  _179
REMARK   77  A    between atoms: _179  and  _180
REMARK   78  A    between atoms: _179  and  _182
REMARK   79  A    between atoms: _182  and  _183
REMARK   80  A    between atoms: _183  and  _184
REMARK   81  A    between atoms: _189  and  _191
REMARK   82  A    between atoms: _191  and  _192
REMARK   83  A    between atoms: _191  and  _194
REMARK   84  A    between atoms: _194  and  _195
REMARK   85  A    between atoms: _198  and  _200
REMARK   86  A    between atoms: _200  and  _201
REMARK   87  A    between atoms: _203  and  _205
REMARK   88  A    between atoms: _205  and  _206
REMARK   89  A    between atoms: _205  and  _208
REMARK   90  A    between atoms: _208  and  _209
REMARK   91  A    between atoms: _215  and  _217
REMARK   92  A    between atoms: _217  and  _218
REMARK   93  A    between atoms: _217  and  _220
REMARK   94  A    between atoms: _220  and  _221
REMARK   95  A    between atoms: _226  and  _227
REMARK   96  A    between atoms: _229  and  _231
REMARK   97  A    between atoms: _231  and  _232
REMARK   98  A    between atoms: _231  and  _234
REMARK   99  A    between atoms: _237  and  _239
REMARK  100  A    between atoms: _239  and  _240
REMARK  101  A    between atoms: _243  and  _245
REMARK  102  A    between atoms: _245  and  _246
REMARK  103  A    between atoms: _245  and  _248
REMARK  104  A    between atoms: _248  and  _249
REMARK  105  A    between atoms: _254  and  _255
REMARK  106  A    between atoms: _257  and  _259
REMARK  107  A    between atoms: _259  and  _260
REMARK  108  A    between atoms: _259  and  _262
REMARK  109  A    between atoms: _262  and  _263
REMARK                            x       y       z     vdW  Elec       q    Type
REMARK                         _______ _______ _______ _____ _____    ______ ____
ROOT
ATOM      1  CA  TYR A   2      10.093 -22.361 -36.043  0.00  0.00    +0.141 C 
ENDROOT
BRANCH   1   3
ATOM      2  C   ILE A   1      10.303 -24.213 -34.500  0.00  0.00    +0.238 C 
ATOM      3  N   TYR A   2       9.928 -22.960 -34.737  0.00  0.00    -0.298 N 
ATOM      4  H   TYR A   2       9.508 -22.399 -33.968  0.00  0.00    +0.150 HD
ATOM      5  O   ILE A   1      10.897 -24.892 -35.341  0.00  0.00    -0.274 OA
BRANCH   2   6
ATOM      6  CA  ILE A   1       9.994 -24.768 -33.103  0.00  0.00    +0.145 C 
BRANCH   6   7
ATOM      7  N   ILE A   1      10.443 -23.818 -32.084  0.00  0.00    -0.238 NA
ATOM      8  H   ILE A   1       9.768 -23.515 -31.353  0.00  0.00    +0.142 HD
ENDBRANCH   6   7
BRANCH   6   9
ATOM      9  CB  ILE A   1       8.444 -24.996 -32.947  0.00  0.00    +0.025 C 
ATOM     10  CG2 ILE A   1       7.831 -25.639 -34.171  0.00  0.00    +0.002 C 
BRANCH   9  11
ATOM     11  CG1 ILE A   1       8.160 -25.776 -31.642  0.00  0.00    +0.002 C 
ATOM     12  CD1 ILE A   1       6.641 -25.921 -31.300  0.00  0.00    +0.000 C 
ENDBRANCH   9  11
ENDBRANCH   6   9
ENDBRANCH   2   6
ENDBRANCH   1   3
BRANCH   1  13
ATOM     13  C   TYR A   2      11.544 -22.044 -36.336  0.00  0.00    +0.227 C 
ATOM     14  O   TYR A   2      11.928 -22.115 -37.480  0.00  0.00    -0.286 OA
ENDBRANCH   1  13
BRANCH   1  15
ATOM     15  CB  TYR A   2       9.224 -21.124 -36.210  0.00  0.00    +0.054 C 
BRANCH  15  16
ATOM     16  CG  TYR A   2       7.854 -21.497 -36.676  0.00  0.00    -0.020 A 
ATOM     17  CD2 TYR A   2       6.835 -21.743 -35.751  0.00  0.00    -0.001 A 
ATOM     18  CE2 TYR A   2       5.552 -22.097 -36.191  0.00  0.00    +0.036 A 
ATOM     19  CZ  TYR A   2       5.302 -22.209 -37.555  0.00  0.00    +0.134 A 
ATOM     20  CE1 TYR A   2       6.295 -21.987 -38.482  0.00  0.00    +0.036 A 
ATOM     21  CD1 TYR A   2       7.579 -21.631 -38.036  0.00  0.00    -0.001 A 
BRANCH  19  22
ATOM     22  OH  TYR A   2       4.048 -22.549 -37.996  0.00  0.00    -0.506 OA
ATOM     23  HH  TYR A   2       3.695 -21.826 -38.572  0.00  0.00    +0.292 HD
ENDBRANCH  19  22
ENDBRANCH  15  16
ENDBRANCH   1  15
TORSDOF 9
REMARK  Name = ../refined-set-2016/4mrz/4mrz_pocket.pdb
REMARK  109 active torsions:
REMARK  status: ('A' for Active; 'I' for Inactive)
REMARK    1  A    between atoms: _1  and  _3
REMARK    2  A    between atoms: _3  and  _4
REMARK    3  A    between atoms: _3  and  _6
REMARK    4  A    between atoms: _6  and  _7
REMARK    5  A    between atoms: _12  and  _13
REMARK    6  A    between atoms: _15  and  _17
REMARK    7  A    between atoms: _17  and  _18
REMARK    8  A    between atoms: _17  and  _20
REMARK    9  A    between atoms: _20  and  _21
REMARK   10  A    between atoms: _26  and  _28
REMARK   11  A    between atoms: _28  and  _29
REMARK   12  A    between atoms: _28  and  _31
REMARK   13  A    between atoms: _31  and  _32
REMARK   14  A    between atoms: _36  and  NI_273
REMARK   15  A    between atoms: _37  and  _39
REMARK   16  A    between atoms: _39  and  _40
REMARK   17  A    between atoms: _39  and  _42
REMARK   18  A    between atoms: _42  and  _43
REMARK   19  A    between atoms: _46  and  _48
REMARK   20  A    between atoms: _48  and  _49
REMARK   21  A    between atoms: _48  and  _51
REMARK   22  A    between atoms: _51  and  _52
REMARK   23  A    between atoms: _52  and  _54
REMARK   24  A    between atoms: _54  and  NI_273
REMARK   25  A    between atoms: _55  and  _57
REMARK   26  A    between atoms: _57  and  _58
REMARK   27  A    between atoms: _57  and  _60
REMARK   28  A    between atoms: _60  and  _61
REMARK   29  A    between atoms: _64  and  _66
REMARK   30  A    between atoms: _66  and  _67
REMARK   31  A    between atoms: _66  and  _69
REMARK   32  A    between atoms: _71  and  _73
REMARK   33  A    between atoms: _73  and  _74
REMARK   34  A    between atoms: _73  and  _76
REMARK   35  A    between atoms: _76  and  _77
REMARK   36  A    between atoms: _79  and  _81
REMARK   37  A    between atoms: _81  and  _82
REMARK   38  A    between atoms: _81  and  _84
REMARK   39  A    between atoms: _87  and  _89
REMARK   40  A    between atoms: _89  and  _90
REMARK   41  A    between atoms: _89  and  _92
REMARK   42  A    between atoms: _92  and  _93
REMARK   43  A    between atoms: _96  and  _98
REMARK   44  A    between atoms: _98  and  _99
REMARK   45  A    between atoms: _98  and  _101
REMARK   46  A    between atoms: _101  and  _102
REMARK   47  A    between atoms: _105  and  _107
REMARK   48  A    between atoms: _107  and  _108
REMARK   49  A    between atoms: _107  and  _110
REMARK   50  A    between atoms: _110  and  _111
REMARK   51  A    between atoms: _114  and  _116
REMARK   52  A    between atoms: _116  and  _117
REMARK   53  A    between atoms: _120  and  _122
REMARK   54  A    between atoms: _122  and  _123
REMARK   55  A    between atoms: _122  and  _125
REMARK   56  A    between atoms: _125  and  _126
REMARK   57  A    between atoms: _129  and  _131
REMARK   58  A    between atoms: _131  and  _132
REMARK   59  A    between atoms: _131  and  _134
REMARK   60  A    between atoms: _134  and  _135
REMARK   61  A    between atoms: _140  and  _141
REMARK   62  A    between atoms: _143  and  _145
REMARK   63  A    between atoms: _145  and  _146
REMARK   64  A    between atoms: _145  and  _148
REMARK   65  A    between atoms: _148  and  _149
REMARK   66  A    between atoms: _155  and  _157
REMARK   67  A    between atoms: _157  and  _158
REMARK   68  A    between atoms: _157  and  _160
REMARK   69  A    between atoms: _160  and  _161
REMARK   70  A    between atoms: _161  and  _162
REMARK   71  A    between atoms: _164  and  _166
REMARK   72  A    between atoms: _166  and  _167
REMARK   73  A    between atoms: _166  and  _169
REMARK   74  A    between atoms: _172  and  _174
REMARK   75  A    between atoms: _174  and  _175
REMARK   76  A    between atoms: _177  and  _179
REMARK   77  A    between atoms: _179  and  _180
REMARK   78  A    between atoms: _179  and  _182
REMARK   79  A    between atoms: _182  and  _183
REMARK   80  A    between atoms: _183  and  _184
REMARK   81  A    between atoms: _189  and  _191
REMARK   82  A    between atoms: _191  and  _192
REMARK   83  A    between atoms: _191  and  _194
REMARK   84  A    between atoms: _194  and  _195
REMARK   85  A    between atoms: _198  and  _200
REMARK   86  A    between atoms: _200  and  _201
REMARK   87  A    between atoms: _203  and  _205
REMARK   88  A    between atoms: _205  and  _206
REMARK   89  A    between atoms: _205  and  _208
REMARK   90  A    between atoms: _208  and  _209
REMARK   91  A    between atoms: _215  and  _217
REMARK   92  A    between atoms: _217  and  _218
REMARK   93  A    between atoms: _217  and  _220
REMARK   94  A    between atoms: _220  and  _221
REMARK   95  A    between atoms: _226  and  _227
REMARK   96  A    between atoms: _229  and  _231
REMARK   97  A    between atoms: _231  and  _232
REMARK   98  A    between atoms: _231  and  _234
REMARK   99  A    between atoms: _237  and  _239
REMARK  100  A    between atoms: _239  and  _240
REMARK  101  A    between atoms: _243  and  _245
REMARK  102  A    between atoms: _245  and  _246
REMARK  103  A    between atoms: _245  and  _248
REMARK  104  A    between atoms: _248  and  _249
REMARK  105  A    between atoms: _254  and  _255
REMARK  106  A    between atoms: _257  and  _259
REMARK  107  A    between atoms: _259  and  _260
REMARK  108  A    between atoms: _259  and  _262
REMARK  109  A    between atoms: _262  and  _263
REMARK                            x       y       z     vdW  Elec       q    Type
REMARK                         _______ _______ _______ _____ _____    ______ ____
ROOT
ATOM      1  CB  PHE A   1      10.617 -24.937 -39.134  0.00  0.00    +0.051 C 
ENDROOT
BRANCH   1   2
ATOM      2  CG  PHE A   1       9.701 -25.970 -38.493  0.00  0.00    -0.020 A 
ATOM      3  CD2 PHE A   1       8.463 -25.559 -38.005  0.00  0.00    -0.004 A 
ATOM      4  CE2 PHE A   1       7.575 -26.463 -37.432  0.00  0.00    -0.000 A 
ATOM      5  CZ  PHE A   1       7.937 -27.819 -37.333  0.00  0.00    -0.000 A 
ATOM      6  CE1 PHE A   1       9.176 -28.245 -37.820  0.00  0.00    -0.000 A 
ATOM      7  CD1 PHE A   1      10.048 -27.311 -38.410  0.00  0.00    -0.004 A 
ENDBRANCH   1   2
BRANCH   1   8
ATOM      8  CA  PHE A   1      12.103 -25.302 -39.143  0.00  0.00    +0.137 C 
BRANCH   8   9
ATOM      9  N   PHE A   1      12.674 -25.140 -37.830  0.00  0.00    -0.239 NA
ATOM     10  H   PHE A   1      12.062 -24.878 -37.031  0.00  0.00    +0.142 HD
ENDBRANCH   8   9
BRANCH   8  11
ATOM     11  C   PHE A   1      12.773 -24.401 -40.190  0.00  0.00    +0.224 C 
ATOM     12  O   PHE A   1      13.048 -24.858 -41.288  0.00  0.00    -0.287 OA
ENDBRANCH   8  11
ENDBRANCH   1   8
TORSDOF 4
REMARK  Name = ../refined-set-2016/4mrz/4mrz_pocket.pdb
REMARK  109 active torsions:
REMARK  status: ('A' for Active; 'I' for Inactive)
REMARK    1  A    between atoms: _1  and  _3
REMARK    2  A    between atoms: _3  and  _4
REMARK    3  A    between atoms: _3  and  _6
REMARK    4  A    between atoms: _6  and  _7
REMARK    5  A    between atoms: _12  and  _13
REMARK    6  A    between atoms: _15  and  _17
REMARK    7  A    between atoms: _17  and  _18
REMARK    8  A    between atoms: _17  and  _20
REMARK    9  A    between atoms: _20  and  _21
REMARK   10  A    between atoms: _26  and  _28
REMARK   11  A    between atoms: _28  and  _29
REMARK   12  A    between atoms: _28  and  _31
REMARK   13  A    between atoms: _31  and  _32
REMARK   14  A    between atoms: _36  and  NI_273
REMARK   15  A    between atoms: _37  and  _39
REMARK   16  A    between atoms: _39  and  _40
REMARK   17  A    between atoms: _39  and  _42
REMARK   18  A    between atoms: _42  and  _43
REMARK   19  A    between atoms: _46  and  _48
REMARK   20  A    between atoms: _48  and  _49
REMARK   21  A    between atoms: _48  and  _51
REMARK   22  A    between atoms: _51  and  _52
REMARK   23  A    between atoms: _52  and  _54
REMARK   24  A    between atoms: _54  and  NI_273
REMARK   25  A    between atoms: _55  and  _57
REMARK   26  A    between atoms: _57  and  _58
REMARK   27  A    between atoms: _57  and  _60
REMARK   28  A    between atoms: _60  and  _61
REMARK   29  A    between atoms: _64  and  _66
REMARK   30  A    between atoms: _66  and  _67
REMARK   31  A    between atoms: _66  and  _69
REMARK   32  A    between atoms: _71  and  _73
REMARK   33  A    between atoms: _73  and  _74
REMARK   34  A    between atoms: _73  and  _76
REMARK   35  A    between atoms: _76  and  _77
REMARK   36  A    between atoms: _79  and  _81
REMARK   37  A    between atoms: _81  and  _82
REMARK   38  A    between atoms: _81  and  _84
REMARK   39  A    between atoms: _87  and  _89
REMARK   40  A    between atoms: _89  and  _90
REMARK   41  A    between atoms: _89  and  _92
REMARK   42  A    between atoms: _92  and  _93
REMARK   43  A    between atoms: _96  and  _98
REMARK   44  A    between atoms: _98  and  _99
REMARK   45  A    between atoms: _98  and  _101
REMARK   46  A    between atoms: _101  and  _102
REMARK   47  A    between atoms: _105  and  _107
REMARK   48  A    between atoms: _107  and  _108
REMARK   49  A    between atoms: _107  and  _110
REMARK   50  A    between atoms: _110  and  _111
REMARK   51  A    between atoms: _114  and  _116
REMARK   52  A    between atoms: _116  and  _117
REMARK   53  A    between atoms: _120  and  _122
REMARK   54  A    between atoms: _122  and  _123
REMARK   55  A    between atoms: _122  and  _125
REMARK   56  A    between atoms: _125  and  _126
REMARK   57  A    between atoms: _129  and  _131
REMARK   58  A    between atoms: _131  and  _132
REMARK   59  A    between atoms: _131  and  _134
REMARK   60  A    between atoms: _134  and  _135
REMARK   61  A    between atoms: _140  and  _141
REMARK   62  A    between atoms: _143  and  _145
REMARK   63  A    between atoms: _145  and  _146
REMARK   64  A    between atoms: _145  and  _148
REMARK   65  A    between atoms: _148  and  _149
REMARK   66  A    between atoms: _155  and  _157
REMARK   67  A    between atoms: _157  and  _158
REMARK   68  A    between atoms: _157  and  _160
REMARK   69  A    between atoms: _160  and  _161
REMARK   70  A    between atoms: _161  and  _162
REMARK   71  A    between atoms: _164  and  _166
REMARK   72  A    between atoms: _166  and  _167
REMARK   73  A    between atoms: _166  and  _169
REMARK   74  A    between atoms: _172  and  _174
REMARK   75  A    between atoms: _174  and  _175
REMARK   76  A    between atoms: _177  and  _179
REMARK   77  A    between atoms: _179  and  _180
REMARK   78  A    between atoms: _179  and  _182
REMARK   79  A    between atoms: _182  and  _183
REMARK   80  A    between atoms: _183  and  _184
REMARK   81  A    between atoms: _189  and  _191
REMARK   82  A    between atoms: _191  and  _192
REMARK   83  A    between atoms: _191  and  _194
REMARK   84  A    between atoms: _194  and  _195
REMARK   85  A    between atoms: _198  and  _200
REMARK   86  A    between atoms: _200  and  _201
REMARK   87  A    between atoms: _203  and  _205
REMARK   88  A    between atoms: _205  and  _206
REMARK   89  A    between atoms: _205  and  _208
REMARK   90  A    between atoms: _208  and  _209
REMARK   91  A    between atoms: _215  and  _217
REMARK   92  A    between atoms: _217  and  _218
REMARK   93  A    between atoms: _217  and  _220
REMARK   94  A    between atoms: _220  and  _221
REMARK   95  A    between atoms: _226  and  _227
REMARK   96  A    between atoms: _229  and  _231
REMARK   97  A    between atoms: _231  and  _232
REMARK   98  A    between atoms: _231  and  _234
REMARK   99  A    between atoms: _237  and  _239
REMARK  100  A    between atoms: _239  and  _240
REMARK  101  A    between atoms: _243  and  _245
REMARK  102  A    between atoms: _245  and  _246
REMARK  103  A    between atoms: _245  and  _248
REMARK  104  A    between atoms: _248  and  _249
REMARK  105  A    between atoms: _254  and  _255
REMARK  106  A    between atoms: _257  and  _259
REMARK  107  A    between atoms: _259  and  _260
REMARK  108  A    between atoms: _259  and  _262
REMARK  109  A    between atoms: _262  and  _263
REMARK                            x       y       z     vdW  Elec       q    Type
REMARK                         _______ _______ _______ _____ _____    ______ ____
ROOT
ATOM      1  CA  MET A   1       6.133 -23.648 -42.657  0.00  0.00    +0.134 C 
ENDROOT
BRANCH   1   2
ATOM      2  N   MET A   1       5.883 -23.526 -44.076  0.00  0.00    -0.239 NA
ATOM      3  H   MET A   1       5.389 -24.299 -44.566  0.00  0.00    +0.142 HD
ENDBRANCH   1   2
BRANCH   1   4
ATOM      4  C   MET A   1       7.630 -23.550 -42.339  0.00  0.00    +0.224 C 
ATOM      5  O   MET A   1       7.996 -23.076 -41.283  0.00  0.00    -0.287 OA
ENDBRANCH   1   4
BRANCH   1   6
ATOM      6  CB  MET A   1       5.565 -24.962 -42.126  0.00  0.00    +0.037 C 
BRANCH   6   7
ATOM      7  CG  MET A   1       5.529 -25.013 -40.624  0.00  0.00    +0.059 C 
BRANCH   7   8
ATOM      8  SD  MET A   1       4.959 -26.572 -39.954  0.00  0.00    -0.139 S 
ATOM      9  CE  MET A   1       6.412 -27.565 -40.305  0.00  0.00    +0.069 C 
ENDBRANCH   7   8
ENDBRANCH   6   7
ENDBRANCH   1   6
TORSDOF 5
REMARK  Name = ../refined-set-2016/4mrz/4mrz_pocket.pdb
REMARK  109 active torsions:
REMARK  status: ('A' for Active; 'I' for Inactive)
REMARK    1  A    between atoms: _1  and  _3
REMARK    2  A    between atoms: _3  and  _4
REMARK    3  A    between atoms: _3  and  _6
REMARK    4  A    between atoms: _6  and  _7
REMARK    5  A    between atoms: _12  and  _13
REMARK    6  A    between atoms: _15  and  _17
REMARK    7  A    between atoms: _17  and  _18
REMARK    8  A    between atoms: _17  and  _20
REMARK    9  A    between atoms: _20  and  _21
REMARK   10  A    between atoms: _26  and  _28
REMARK   11  A    between atoms: _28  and  _29
REMARK   12  A    between atoms: _28  and  _31
REMARK   13  A    between atoms: _31  and  _32
REMARK   14  A    between atoms: _36  and  NI_273
REMARK   15  A    between atoms: _37  and  _39
REMARK   16  A    between atoms: _39  and  _40
REMARK   17  A    between atoms: _39  and  _42
REMARK   18  A    between atoms: _42  and  _43
REMARK   19  A    between atoms: _46  and  _48
REMARK   20  A    between atoms: _48  and  _49
REMARK   21  A    between atoms: _48  and  _51
REMARK   22  A    between atoms: _51  and  _52
REMARK   23  A    between atoms: _52  and  _54
REMARK   24  A    between atoms: _54  and  NI_273
REMARK   25  A    between atoms: _55  and  _57
REMARK   26  A    between atoms: _57  and  _58
REMARK   27  A    between atoms: _57  and  _60
REMARK   28  A    between atoms: _60  and  _61
REMARK   29  A    between atoms: _64  and  _66
REMARK   30  A    between atoms: _66  and  _67
REMARK   31  A    between atoms: _66  and  _69
REMARK   32  A    between atoms: _71  and  _73
REMARK   33  A    between atoms: _73  and  _74
REMARK   34  A    between atoms: _73  and  _76
REMARK   35  A    between atoms: _76  and  _77
REMARK   36  A    between atoms: _79  and  _81
REMARK   37  A    between atoms: _81  and  _82
REMARK   38  A    between atoms: _81  and  _84
REMARK   39  A    between atoms: _87  and  _89
REMARK   40  A    between atoms: _89  and  _90
REMARK   41  A    between atoms: _89  and  _92
REMARK   42  A    between atoms: _92  and  _93
REMARK   43  A    between atoms: _96  and  _98
REMARK   44  A    between atoms: _98  and  _99
REMARK   45  A    between atoms: _98  and  _101
REMARK   46  A    between atoms: _101  and  _102
REMARK   47  A    between atoms: _105  and  _107
REMARK   48  A    between atoms: _107  and  _108
REMARK   49  A    between atoms: _107  and  _110
REMARK   50  A    between atoms: _110  and  _111
REMARK   51  A    between atoms: _114  and  _116
REMARK   52  A    between atoms: _116  and  _117
REMARK   53  A    between atoms: _120  and  _122
REMARK   54  A    between atoms: _122  and  _123
REMARK   55  A    between atoms: _122  and  _125
REMARK   56  A    between atoms: _125  and  _126
REMARK   57  A    between atoms: _129  and  _131
REMARK   58  A    between atoms: _131  and  _132
REMARK   59  A    between atoms: _131  and  _134
REMARK   60  A    between atoms: _134  and  _135
REMARK   61  A    between atoms: _140  and  _141
REMARK   62  A    between atoms: _143  and  _145
REMARK   63  A    between atoms: _145  and  _146
REMARK   64  A    between atoms: _145  and  _148
REMARK   65  A    between atoms: _148  and  _149
REMARK   66  A    between atoms: _155  and  _157
REMARK   67  A    between atoms: _157  and  _158
REMARK   68  A    between atoms: _157  and  _160
REMARK   69  A    between atoms: _160  and  _161
REMARK   70  A    between atoms: _161  and  _162
REMARK   71  A    between atoms: _164  and  _166
REMARK   72  A    between atoms: _166  and  _167
REMARK   73  A    between atoms: _166  and  _169
REMARK   74  A    between atoms: _172  and  _174
REMARK   75  A    between atoms: _174  and  _175
REMARK   76  A    between atoms: _177  and  _179
REMARK   77  A    between atoms: _179  and  _180
REMARK   78  A    between atoms: _179  and  _182
REMARK   79  A    between atoms: _182  and  _183
REMARK   80  A    between atoms: _183  and  _184
REMARK   81  A    between atoms: _189  and  _191
REMARK   82  A    between atoms: _191  and  _192
REMARK   83  A    between atoms: _191  and  _194
REMARK   84  A    between atoms: _194  and  _195
REMARK   85  A    between atoms: _198  and  _200
REMARK   86  A    between atoms: _200  and  _201
REMARK   87  A    between atoms: _203  and  _205
REMARK   88  A    between atoms: _205  and  _206
REMARK   89  A    between atoms: _205  and  _208
REMARK   90  A    between atoms: _208  and  _209
REMARK   91  A    between atoms: _215  and  _217
REMARK   92  A    between atoms: _217  and  _218
REMARK   93  A    between atoms: _217  and  _220
REMARK   94  A    between atoms: _220  and  _221
REMARK   95  A    between atoms: _226  and  _227
REMARK   96  A    between atoms: _229  and  _231
REMARK   97  A    between atoms: _231  and  _232
REMARK   98  A    between atoms: _231  and  _234
REMARK   99  A    between atoms: _237  and  _239
REMARK  100  A    between atoms: _239  and  _240
REMARK  101  A    between atoms: _243  and  _245
REMARK  102  A    between atoms: _245  and  _246
REMARK  103  A    between atoms: _245  and  _248
REMARK  104  A    between atoms: _248  and  _249
REMARK  105  A    between atoms: _254  and  _255
REMARK  106  A    between atoms: _257  and  _259
REMARK  107  A    between atoms: _259  and  _260
REMARK  108  A    between atoms: _259  and  _262
REMARK  109  A    between atoms: _262  and  _263
REMARK                            x       y       z     vdW  Elec       q    Type
REMARK                         _______ _______ _______ _____ _____    ______ ____
ROOT
ATOM      1  CA  VAL A   1       2.683 -18.778 -39.245  0.00  0.00    +0.133 C 
ENDROOT
BRANCH   1   2
ATOM      2  CB  VAL A   1       3.788 -18.257 -38.339  0.00  0.00    +0.023 C 
ATOM      3  CG2 VAL A   1       3.676 -18.842 -36.939  0.00  0.00    +0.002 C 
ATOM      4  CG1 VAL A   1       5.151 -18.588 -38.956  0.00  0.00    +0.002 C 
ENDBRANCH   1   2
BRANCH   1   5
ATOM      5  N   VAL A   1       2.570 -17.984 -40.482  0.00  0.00    -0.239 NA
ATOM      6  H   VAL A   1       3.158 -17.134 -40.599  0.00  0.00    +0.142 HD
ENDBRANCH   1   5
BRANCH   1   7
ATOM      7  C   VAL A   1       1.352 -18.908 -38.461  0.00  0.00    +0.224 C 
ATOM      8  O   VAL A   1       0.996 -20.005 -38.036  0.00  0.00    -0.287 OA
ENDBRANCH   1   7
TORSDOF 3
REMARK  Name = ../refined-set-2016/4mrz/4mrz_pocket.pdb
REMARK  109 active torsions:
REMARK  status: ('A' for Active; 'I' for Inactive)
REMARK    1  A    between atoms: _1  and  _3
REMARK    2  A    between atoms: _3  and  _4
REMARK    3  A    between atoms: _3  and  _6
REMARK    4  A    between atoms: _6  and  _7
REMARK    5  A    between atoms: _12  and  _13
REMARK    6  A    between atoms: _15  and  _17
REMARK    7  A    between atoms: _17  and  _18
REMARK    8  A    between atoms: _17  and  _20
REMARK    9  A    between atoms: _20  and  _21
REMARK   10  A    between atoms: _26  and  _28
REMARK   11  A    between atoms: _28  and  _29
REMARK   12  A    between atoms: _28  and  _31
REMARK   13  A    between atoms: _31  and  _32
REMARK   14  A    between atoms: _36  and  NI_273
REMARK   15  A    between atoms: _37  and  _39
REMARK   16  A    between atoms: _39  and  _40
REMARK   17  A    between atoms: _39  and  _42
REMARK   18  A    between atoms: _42  and  _43
REMARK   19  A    between atoms: _46  and  _48
REMARK   20  A    between atoms: _48  and  _49
REMARK   21  A    between atoms: _48  and  _51
REMARK   22  A    between atoms: _51  and  _52
REMARK   23  A    between atoms: _52  and  _54
REMARK   24  A    between atoms: _54  and  NI_273
REMARK   25  A    between atoms: _55  and  _57
REMARK   26  A    between atoms: _57  and  _58
REMARK   27  A    between atoms: _57  and  _60
REMARK   28  A    between atoms: _60  and  _61
REMARK   29  A    between atoms: _64  and  _66
REMARK   30  A    between atoms: _66  and  _67
REMARK   31  A    between atoms: _66  and  _69
REMARK   32  A    between atoms: _71  and  _73
REMARK   33  A    between atoms: _73  and  _74
REMARK   34  A    between atoms: _73  and  _76
REMARK   35  A    between atoms: _76  and  _77
REMARK   36  A    between atoms: _79  and  _81
REMARK   37  A    between atoms: _81  and  _82
REMARK   38  A    between atoms: _81  and  _84
REMARK   39  A    between atoms: _87  and  _89
REMARK   40  A    between atoms: _89  and  _90
REMARK   41  A    between atoms: _89  and  _92
REMARK   42  A    between atoms: _92  and  _93
REMARK   43  A    between atoms: _96  and  _98
REMARK   44  A    between atoms: _98  and  _99
REMARK   45  A    between atoms: _98  and  _101
REMARK   46  A    between atoms: _101  and  _102
REMARK   47  A    between atoms: _105  and  _107
REMARK   48  A    between atoms: _107  and  _108
REMARK   49  A    between atoms: _107  and  _110
REMARK   50  A    between atoms: _110  and  _111
REMARK   51  A    between atoms: _114  and  _116
REMARK   52  A    between atoms: _116  and  _117
REMARK   53  A    between atoms: _120  and  _122
REMARK   54  A    between atoms: _122  and  _123
REMARK   55  A    between atoms: _122  and  _125
REMARK   56  A    between atoms: _125  and  _126
REMARK   57  A    between atoms: _129  and  _131
REMARK   58  A    between atoms: _131  and  _132
REMARK   59  A    between atoms: _131  and  _134
REMARK   60  A    between atoms: _134  and  _135
REMARK   61  A    between atoms: _140  and  _141
REMARK   62  A    between atoms: _143  and  _145
REMARK   63  A    between atoms: _145  and  _146
REMARK   64  A    between atoms: _145  and  _148
REMARK   65  A    between atoms: _148  and  _149
REMARK   66  A    between atoms: _155  and  _157
REMARK   67  A    between atoms: _157  and  _158
REMARK   68  A    between atoms: _157  and  _160
REMARK   69  A    between atoms: _160  and  _161
REMARK   70  A    between atoms: _161  and  _162
REMARK   71  A    between atoms: _164  and  _166
REMARK   72  A    between atoms: _166  and  _167
REMARK   73  A    between atoms: _166  and  _169
REMARK   74  A    between atoms: _172  and  _174
REMARK   75  A    between atoms: _174  and  _175
REMARK   76  A    between atoms: _177  and  _179
REMARK   77  A    between atoms: _179  and  _180
REMARK   78  A    between atoms: _179  and  _182
REMARK   79  A    between atoms: _182  and  _183
REMARK   80  A    between atoms: _183  and  _184
REMARK   81  A    between atoms: _189  and  _191
REMARK   82  A    between atoms: _191  and  _192
REMARK   83  A    between atoms: _191  and  _194
REMARK   84  A    between atoms: _194  and  _195
REMARK   85  A    between atoms: _198  and  _200
REMARK   86  A    between atoms: _200  and  _201
REMARK   87  A    between atoms: _203  and  _205
REMARK   88  A    between atoms: _205  and  _206
REMARK   89  A    between atoms: _205  and  _208
REMARK   90  A    between atoms: _208  and  _209
REMARK   91  A    between atoms: _215  and  _217
REMARK   92  A    between atoms: _217  and  _218
REMARK   93  A    between atoms: _217  and  _220
REMARK   94  A    between atoms: _220  and  _221
REMARK   95  A    between atoms: _226  and  _227
REMARK   96  A    between atoms: _229  and  _231
REMARK   97  A    between atoms: _231  and  _232
REMARK   98  A    between atoms: _231  and  _234
REMARK   99  A    between atoms: _237  and  _239
REMARK  100  A    between atoms: _239  and  _240
REMARK  101  A    between atoms: _243  and  _245
REMARK  102  A    between atoms: _245  and  _246
REMARK  103  A    between atoms: _245  and  _248
REMARK  104  A    between atoms: _248  and  _249
REMARK  105  A    between atoms: _254  and  _255
REMARK  106  A    between atoms: _257  and  _259
REMARK  107  A    between atoms: _259  and  _260
REMARK  108  A    between atoms: _259  and  _262
REMARK  109  A    between atoms: _262  and  _263
REMARK                            x       y       z     vdW  Elec       q    Type
REMARK                         _______ _______ _______ _____ _____    ______ ____
ROOT
ATOM      1  CA  GLY A   4      -3.985 -25.705 -39.191  0.00  0.00    +0.176 C 
ENDROOT
BRANCH   1   2
ATOM      2  C   GLY A   4      -3.503 -26.851 -38.320  0.00  0.00    +0.243 C 
ATOM      3  N   PHE A   5      -2.346 -26.648 -37.681  0.00  0.00    -0.297 N 
ATOM      4  H   PHE A   5      -1.839 -25.750 -37.816  0.00  0.00    +0.150 HD
ATOM      5  O   GLY A   4      -4.166 -27.900 -38.207  0.00  0.00    -0.273 OA
BRANCH   3   6
ATOM      6  CA  PHE A   5      -1.785 -27.656 -36.804  0.00  0.00    +0.153 C 
BRANCH   6   7
ATOM      7  C   PHE A   5      -2.708 -27.985 -35.618  0.00  0.00    +0.241 C 
ATOM      8  N   TYR A   6      -3.303 -26.964 -35.005  0.00  0.00    -0.298 N 
ATOM      9  H   TYR A   6      -3.130 -25.992 -35.333  0.00  0.00    +0.150 HD
ATOM     10  O   PHE A   5      -2.892 -29.151 -35.280  0.00  0.00    -0.273 OA
BRANCH   8  11
ATOM     11  CA  TYR A   6      -4.201 -27.202 -33.869  0.00  0.00    +0.141 C 
BRANCH  11  12
ATOM     12  C   TYR A   6      -5.455 -27.919 -34.340  0.00  0.00    +0.227 C 
ATOM     13  O   TYR A   6      -5.911 -28.856 -33.679  0.00  0.00    -0.286 OA
ENDBRANCH  11  12
BRANCH  11  14
ATOM     14  CB  TYR A   6      -4.582 -25.904 -33.182  0.00  0.00    +0.054 C 
BRANCH  14  15
ATOM     15  CG  TYR A   6      -3.559 -25.362 -32.204  0.00  0.00    -0.020 A 
ATOM     16  CD2 TYR A   6      -3.888 -25.163 -30.862  0.00  0.00    -0.001 A 
ATOM     17  CE2 TYR A   6      -2.958 -24.643 -29.950  0.00  0.00    +0.036 A 
ATOM     18  CZ  TYR A   6      -1.687 -24.319 -30.406  0.00  0.00    +0.134 A 
ATOM     19  CE1 TYR A   6      -1.336 -24.522 -31.726  0.00  0.00    +0.036 A 
ATOM     20  CD1 TYR A   6      -2.260 -25.028 -32.624  0.00  0.00    -0.001 A 
BRANCH  18  21
ATOM     21  OH  TYR A   6      -0.769 -23.797 -29.537  0.00  0.00    -0.506 OA
ATOM     22  HH  TYR A   6       0.078 -23.624 -30.019  0.00  0.00    +0.292 HD
ENDBRANCH  18  21
ENDBRANCH  14  15
ENDBRANCH  11  14
ENDBRANCH   8  11
ENDBRANCH   6   7
BRANCH   6  23
ATOM     23  CB  PHE A   5      -0.367 -27.268 -36.323  0.00  0.00    +0.055 C 
BRANCH  23  24
ATOM     24  CG  PHE A   5       0.288 -28.349 -35.543  0.00  0.00    -0.020 A 
ATOM     25  CD2 PHE A   5       0.250 -28.323 -34.143  0.00  0.00    -0.004 A 
ATOM     26  CE2 PHE A   5       0.831 -29.364 -33.397  0.00  0.00    -0.000 A 
ATOM     27  CZ  PHE A   5       1.430 -30.437 -34.063  0.00  0.00    -0.000 A 
ATOM     28  CE1 PHE A   5       1.468 -30.460 -35.469  0.00  0.00    -0.000 A 
ATOM     29  CD1 PHE A   5       0.900 -29.426 -36.193  0.00  0.00    -0.004 A 
ENDBRANCH  23  24
ENDBRANCH   6  23
ENDBRANCH   3   6
ENDBRANCH   1   2
BRANCH   1  32
ATOM     30  C   LEU A   3      -4.573 -24.183 -37.367  0.00  0.00    +0.241 C 
ATOM     31  O   LEU A   3      -5.284 -25.039 -36.818  0.00  0.00    -0.273 OA
ATOM     32  N   GLY A   4      -3.917 -24.423 -38.506  0.00  0.00    -0.295 N 
ATOM     33  H   GLY A   4      -3.336 -23.665 -38.918  0.00  0.00    +0.150 HD
BRANCH  30  34
ATOM     34  CA  LEU A   3      -4.381 -22.796 -36.722  0.00  0.00    +0.149 C 
BRANCH  34  37
ATOM     35  C   GLN A   2      -2.103 -23.259 -36.145  0.00  0.00    +0.241 C 
ATOM     36  O   GLN A   2      -2.441 -24.300 -35.600  0.00  0.00    -0.273 OA
ATOM     37  N   LEU A   3      -2.961 -22.416 -36.680  0.00  0.00    -0.297 N 
ATOM     38  H   LEU A   3      -2.642 -21.503 -37.064  0.00  0.00    +0.150 HD
BRANCH  35  39
ATOM     39  CA  GLN A   2      -0.628 -22.891 -36.254  0.00  0.00    +0.149 C 
BRANCH  39  41
ATOM     40  C   GLY A   1      -0.379 -23.229 -38.648  0.00  0.00    +0.240 C 
ATOM     41  N   GLN A   2      -0.331 -22.408 -37.602  0.00  0.00    -0.297 N 
ATOM     42  H   GLN A   2      -0.079 -21.409 -37.745  0.00  0.00    +0.150 HD
ATOM     43  O   GLY A   1      -0.581 -24.450 -38.539  0.00  0.00    -0.274 OA
BRANCH  40  44
ATOM     44  CA  GLY A   1      -0.144 -22.599 -40.013  0.00  0.00    +0.169 C 
BRANCH  44  45
ATOM     45  N   GLY A   1      -0.778 -21.285 -40.116  0.00  0.00    -0.236 NA
ATOM     46  H   GLY A   1      -0.186 -20.440 -40.247  0.00  0.00    +0.142 HD
ENDBRANCH  44  45
ENDBRANCH  40  44
ENDBRANCH  39  41
BRANCH  39  47
ATOM     47  CB  GLN A   2      -0.239 -21.870 -35.207  0.00  0.00    +0.039 C 
BRANCH  47  48
ATOM     48  CG  GLN A   2       1.287 -21.806 -35.043  0.00  0.00    +0.087 C 
BRANCH  48  49
ATOM     49  CD  GLN A   2       1.876 -23.133 -34.628  0.00  0.00    +0.219 C 
ATOM     50  OE1 GLN A   2       1.726 -23.561 -33.495  0.00  0.00    -0.275 OA
ATOM     51  NE2 GLN A   2       2.580 -23.789 -35.552  0.00  0.00    -0.329 N 
ATOM     52 HE21 GLN A   2       3.025 -24.699 -35.318  0.00  0.00    +0.145 HD
ATOM     53 HE22 GLN A   2       2.684 -23.390 -36.507  0.00  0.00    +0.145 HD
ENDBRANCH  48  49
ENDBRANCH  47  48
ENDBRANCH  39  47
ENDBRANCH  35  39
ENDBRANCH  34  37
BRANCH  34  54
ATOM     54  CB  LEU A   3      -5.180 -21.724 -37.456  0.00  0.00    +0.029 C 
BRANCH  54  55
ATOM     55  CG  LEU A   3      -6.691 -21.889 -37.487  0.00  0.00    +0.002 C 
ATOM     56  CD2 LEU A   3      -7.355 -20.571 -37.151  0.00  0.00    +0.000 C 
ATOM     57  CD1 LEU A   3      -7.123 -22.364 -38.868  0.00  0.00    +0.000 C 
ENDBRANCH  54  55
ENDBRANCH  34  54
ENDBRANCH  30  34
ENDBRANCH   1  32
TORSDOF 22
REMARK  Name = ../refined-set-2016/4mrz/4mrz_pocket.pdb
REMARK  109 active torsions:
REMARK  status: ('A' for Active; 'I' for Inactive)
REMARK    1  A    between atoms: _1  and  _3
REMARK    2  A    between atoms: _3  and  _4
REMARK    3  A    between atoms: _3  and  _6
REMARK    4  A    between atoms: _6  and  _7
REMARK    5  A    between atoms: _12  and  _13
REMARK    6  A    between atoms: _15  and  _17
REMARK    7  A    between atoms: _17  and  _18
REMARK    8  A    between atoms: _17  and  _20
REMARK    9  A    between atoms: _20  and  _21
REMARK   10  A    between atoms: _26  and  _28
REMARK   11  A    between atoms: _28  and  _29
REMARK   12  A    between atoms: _28  and  _31
REMARK   13  A    between atoms: _31  and  _32
REMARK   14  A    between atoms: _36  and  NI_273
REMARK   15  A    between atoms: _37  and  _39
REMARK   16  A    between atoms: _39  and  _40
REMARK   17  A    between atoms: _39  and  _42
REMARK   18  A    between atoms: _42  and  _43
REMARK   19  A    between atoms: _46  and  _48
REMARK   20  A    between atoms: _48  and  _49
REMARK   21  A    between atoms: _48  and  _51
REMARK   22  A    between atoms: _51  and  _52
REMARK   23  A    between atoms: _52  and  _54
REMARK   24  A    between atoms: _54  and  NI_273
REMARK   25  A    between atoms: _55  and  _57
REMARK   26  A    between atoms: _57  and  _58
REMARK   27  A    between atoms: _57  and  _60
REMARK   28  A    between atoms: _60  and  _61
REMARK   29  A    between atoms: _64  and  _66
REMARK   30  A    between atoms: _66  and  _67
REMARK   31  A    between atoms: _66  and  _69
REMARK   32  A    between atoms: _71  and  _73
REMARK   33  A    between atoms: _73  and  _74
REMARK   34  A    between atoms: _73  and  _76
REMARK   35  A    between atoms: _76  and  _77
REMARK   36  A    between atoms: _79  and  _81
REMARK   37  A    between atoms: _81  and  _82
REMARK   38  A    between atoms: _81  and  _84
REMARK   39  A    between atoms: _87  and  _89
REMARK   40  A    between atoms: _89  and  _90
REMARK   41  A    between atoms: _89  and  _92
REMARK   42  A    between atoms: _92  and  _93
REMARK   43  A    between atoms: _96  and  _98
REMARK   44  A    between atoms: _98  and  _99
REMARK   45  A    between atoms: _98  and  _101
REMARK   46  A    between atoms: _101  and  _102
REMARK   47  A    between atoms: _105  and  _107
REMARK   48  A    between atoms: _107  and  _108
REMARK   49  A    between atoms: _107  and  _110
REMARK   50  A    between atoms: _110  and  _111
REMARK   51  A    between atoms: _114  and  _116
REMARK   52  A    between atoms: _116  and  _117
REMARK   53  A    between atoms: _120  and  _122
REMARK   54  A    between atoms: _122  and  _123
REMARK   55  A    between atoms: _122  and  _125
REMARK   56  A    between atoms: _125  and  _126
REMARK   57  A    between atoms: _129  and  _131
REMARK   58  A    between atoms: _131  and  _132
REMARK   59  A    between atoms: _131  and  _134
REMARK   60  A    between atoms: _134  and  _135
REMARK   61  A    between atoms: _140  and  _141
REMARK   62  A    between atoms: _143  and  _145
REMARK   63  A    between atoms: _145  and  _146
REMARK   64  A    between atoms: _145  and  _148
REMARK   65  A    between atoms: _148  and  _149
REMARK   66  A    between atoms: _155  and  _157
REMARK   67  A    between atoms: _157  and  _158
REMARK   68  A    between atoms: _157  and  _160
REMARK   69  A    between atoms: _160  and  _161
REMARK   70  A    between atoms: _161  and  _162
REMARK   71  A    between atoms: _164  and  _166
REMARK   72  A    between atoms: _166  and  _167
REMARK   73  A    between atoms: _166  and  _169
REMARK   74  A    between atoms: _172  and  _174
REMARK   75  A    between atoms: _174  and  _175
REMARK   76  A    between atoms: _177  and  _179
REMARK   77  A    between atoms: _179  and  _180
REMARK   78  A    between atoms: _179  and  _182
REMARK   79  A    between atoms: _182  and  _183
REMARK   80  A    between atoms: _183  and  _184
REMARK   81  A    between atoms: _189  and  _191
REMARK   82  A    between atoms: _191  and  _192
REMARK   83  A    between atoms: _191  and  _194
REMARK   84  A    between atoms: _194  and  _195
REMARK   85  A    between atoms: _198  and  _200
REMARK   86  A    between atoms: _200  and  _201
REMARK   87  A    between atoms: _203  and  _205
REMARK   88  A    between atoms: _205  and  _206
REMARK   89  A    between atoms: _205  and  _208
REMARK   90  A    between atoms: _208  and  _209
REMARK   91  A    between atoms: _215  and  _217
REMARK   92  A    between atoms: _217  and  _218
REMARK   93  A    between atoms: _217  and  _220
REMARK   94  A    between atoms: _220  and  _221
REMARK   95  A    between atoms: _226  and  _227
REMARK   96  A    between atoms: _229  and  _231
REMARK   97  A    between atoms: _231  and  _232
REMARK   98  A    between atoms: _231  and  _234
REMARK   99  A    between atoms: _237  and  _239
REMARK  100  A    between atoms: _239  and  _240
REMARK  101  A    between atoms: _243  and  _245
REMARK  102  A    between atoms: _245  and  _246
REMARK  103  A    between atoms: _245  and  _248
REMARK  104  A    between atoms: _248  and  _249
REMARK  105  A    between atoms: _254  and  _255
REMARK  106  A    between atoms: _257  and  _259
REMARK  107  A    between atoms: _259  and  _260
REMARK  108  A    between atoms: _259  and  _262
REMARK  109  A    between atoms: _262  and  _263
REMARK                            x       y       z     vdW  Elec       q    Type
REMARK                         _______ _______ _______ _____ _____    ______ ____
ROOT
ATOM      1  C   VAL A   1      -3.717 -32.354 -33.406  0.00  0.00    +0.238 C 
ATOM      2  O   VAL A   1      -4.211 -33.304 -32.760  0.00  0.00    -0.274 OA
ATOM      3  N   ALA A   2      -3.505 -31.151 -32.864  0.00  0.00    -0.298 N 
ATOM      4  H   ALA A   2      -3.335 -30.326 -33.474  0.00  0.00    +0.150 HD
ENDROOT
BRANCH   3   5
ATOM      5  CA  ALA A   2      -3.514 -30.999 -31.393  0.00  0.00    +0.137 C 
ATOM      6  CB  ALA A   2      -2.862 -29.671 -30.964  0.00  0.00    +0.030 C 
BRANCH   5   7
ATOM      7  C   ALA A   2      -4.907 -31.172 -30.776  0.00  0.00    +0.227 C 
ATOM      8  O   ALA A   2      -5.098 -31.974 -29.862  0.00  0.00    -0.286 OA
ENDBRANCH   5   7
ENDBRANCH   3   5
BRANCH   1   9
ATOM      9  CA  VAL A   1      -3.349 -32.545 -34.883  0.00  0.00    +0.145 C 
BRANCH   9  10
ATOM     10  CB  VAL A   1      -1.804 -32.349 -35.106  0.00  0.00    +0.025 C 
ATOM     11  CG2 VAL A   1      -1.045 -33.318 -34.254  0.00  0.00    +0.002 C 
ATOM     12  CG1 VAL A   1      -1.427 -32.553 -36.585  0.00  0.00    +0.002 C 
ENDBRANCH   9  10
BRANCH   9  13
ATOM     13  N   VAL A   1      -4.153 -31.696 -35.739  0.00  0.00    -0.238 NA
ATOM     14  H   VAL A   1      -4.118 -30.666 -35.596  0.00  0.00    +0.142 HD
ENDBRANCH   9  13
ENDBRANCH   1   9
TORSDOF 5
REMARK  Name = ../refined-set-2016/4mrz/4mrz_pocket.pdb
REMARK  109 active torsions:
REMARK  status: ('A' for Active; 'I' for Inactive)
REMARK    1  A    between atoms: _1  and  _3
REMARK    2  A    between atoms: _3  and  _4
REMARK    3  A    between atoms: _3  and  _6
REMARK    4  A    between atoms: _6  and  _7
REMARK    5  A    between atoms: _12  and  _13
REMARK    6  A    between atoms: _15  and  _17
REMARK    7  A    between atoms: _17  and  _18
REMARK    8  A    between atoms: _17  and  _20
REMARK    9  A    between atoms: _20  and  _21
REMARK   10  A    between atoms: _26  and  _28
REMARK   11  A    between atoms: _28  and  _29
REMARK   12  A    between atoms: _28  and  _31
REMARK   13  A    between atoms: _31  and  _32
REMARK   14  A    between atoms: _36  and  NI_273
REMARK   15  A    between atoms: _37  and  _39
REMARK   16  A    between atoms: _39  and  _40
REMARK   17  A    between atoms: _39  and  _42
REMARK   18  A    between atoms: _42  and  _43
REMARK   19  A    between atoms: _46  and  _48
REMARK   20  A    between atoms: _48  and  _49
REMARK   21  A    between atoms: _48  and  _51
REMARK   22  A    between atoms: _51  and  _52
REMARK   23  A    between atoms: _52  and  _54
REMARK   24  A    between atoms: _54  and  NI_273
REMARK   25  A    between atoms: _55  and  _57
REMARK   26  A    between atoms: _57  and  _58
REMARK   27  A    between atoms: _57  and  _60
REMARK   28  A    between atoms: _60  and  _61
REMARK   29  A    between atoms: _64  and  _66
REMARK   30  A    between atoms: _66  and  _67
REMARK   31  A    between atoms: _66  and  _69
REMARK   32  A    between atoms: _71  and  _73
REMARK   33  A    between atoms: _73  and  _74
REMARK   34  A    between atoms: _73  and  _76
REMARK   35  A    between atoms: _76  and  _77
REMARK   36  A    between atoms: _79  and  _81
REMARK   37  A    between atoms: _81  and  _82
REMARK   38  A    between atoms: _81  and  _84
REMARK   39  A    between atoms: _87  and  _89
REMARK   40  A    between atoms: _89  and  _90
REMARK   41  A    between atoms: _89  and  _92
REMARK   42  A    between atoms: _92  and  _93
REMARK   43  A    between atoms: _96  and  _98
REMARK   44  A    between atoms: _98  and  _99
REMARK   45  A    between atoms: _98  and  _101
REMARK   46  A    between atoms: _101  and  _102
REMARK   47  A    between atoms: _105  and  _107
REMARK   48  A    between atoms: _107  and  _108
REMARK   49  A    between atoms: _107  and  _110
REMARK   50  A    between atoms: _110  and  _111
REMARK   51  A    between atoms: _114  and  _116
REMARK   52  A    between atoms: _116  and  _117
REMARK   53  A    between atoms: _120  and  _122
REMARK   54  A    between atoms: _122  and  _123
REMARK   55  A    between atoms: _122  and  _125
REMARK   56  A    between atoms: _125  and  _126
REMARK   57  A    between atoms: _129  and  _131
REMARK   58  A    between atoms: _131  and  _132
REMARK   59  A    between atoms: _131  and  _134
REMARK   60  A    between atoms: _134  and  _135
REMARK   61  A    between atoms: _140  and  _141
REMARK   62  A    between atoms: _143  and  _145
REMARK   63  A    between atoms: _145  and  _146
REMARK   64  A    between atoms: _145  and  _148
REMARK   65  A    between atoms: _148  and  _149
REMARK   66  A    between atoms: _155  and  _157
REMARK   67  A    between atoms: _157  and  _158
REMARK   68  A    between atoms: _157  and  _160
REMARK   69  A    between atoms: _160  and  _161
REMARK   70  A    between atoms: _161  and  _162
REMARK   71  A    between atoms: _164  and  _166
REMARK   72  A    between atoms: _166  and  _167
REMARK   73  A    between atoms: _166  and  _169
REMARK   74  A    between atoms: _172  and  _174
REMARK   75  A    between atoms: _174  and  _175
REMARK   76  A    between atoms: _177  and  _179
REMARK   77  A    between atoms: _179  and  _180
REMARK   78  A    between atoms: _179  and  _182
REMARK   79  A    between atoms: _182  and  _183
REMARK   80  A    between atoms: _183  and  _184
REMARK   81  A    between atoms: _189  and  _191
REMARK   82  A    between atoms: _191  and  _192
REMARK   83  A    between atoms: _191  and  _194
REMARK   84  A    between atoms: _194  and  _195
REMARK   85  A    between atoms: _198  and  _200
REMARK   86  A    between atoms: _200  and  _201
REMARK   87  A    between atoms: _203  and  _205
REMARK   88  A    between atoms: _205  and  _206
REMARK   89  A    between atoms: _205  and  _208
REMARK   90  A    between atoms: _208  and  _209
REMARK   91  A    between atoms: _215  and  _217
REMARK   92  A    between atoms: _217  and  _218
REMARK   93  A    between atoms: _217  and  _220
REMARK   94  A    between atoms: _220  and  _221
REMARK   95  A    between atoms: _226  and  _227
REMARK   96  A    between atoms: _229  and  _231
REMARK   97  A    between atoms: _231  and  _232
REMARK   98  A    between atoms: _231  and  _234
REMARK   99  A    between atoms: _237  and  _239
REMARK  100  A    between atoms: _239  and  _240
REMARK  101  A    between atoms: _243  and  _245
REMARK  102  A    between atoms: _245  and  _246
REMARK  103  A    between atoms: _245  and  _248
REMARK  104  A    between atoms: _248  and  _249
REMARK  105  A    between atoms: _254  and  _255
REMARK  106  A    between atoms: _257  and  _259
REMARK  107  A    between atoms: _259  and  _260
REMARK  108  A    between atoms: _259  and  _262
REMARK  109  A    between atoms: _262  and  _263
REMARK                            x       y       z     vdW  Elec       q    Type
REMARK                         _______ _______ _______ _____ _____    ______ ____
ROOT
ATOM      1  CG  TYR A   1      -4.535 -32.398 -26.165  0.00  0.00    -0.020 A 
ATOM      2  CD2 TYR A   1      -3.799 -33.099 -25.259  0.00  0.00    -0.001 A 
ATOM      3  CE2 TYR A   1      -2.389 -32.946 -25.227  0.00  0.00    +0.036 A 
ATOM      4  CZ  TYR A   1      -1.810 -32.081 -26.144  0.00  0.00    +0.134 A 
ATOM      5  CE1 TYR A   1      -2.516 -31.391 -27.049  0.00  0.00    +0.036 A 
ATOM      6  CD1 TYR A   1      -3.913 -31.540 -27.053  0.00  0.00    -0.001 A 
ENDROOT
BRANCH   4   7
ATOM      7  OH  TYR A   1      -0.436 -31.879 -26.204  0.00  0.00    -0.506 OA
ATOM      8  HH  TYR A   1       0.015 -32.739 -26.397  0.00  0.00    +0.292 HD
ENDBRANCH   4   7
BRANCH   1   9
ATOM      9  CB  TYR A   1      -6.024 -32.585 -26.217  0.00  0.00    +0.051 C 
BRANCH   9  10
ATOM     10  CA  TYR A   1      -6.389 -34.011 -26.658  0.00  0.00    +0.137 C 
BRANCH  10  11
ATOM     11  N   TYR A   1      -6.046 -34.243 -28.060  0.00  0.00    -0.239 NA
ATOM     12  H   TYR A   1      -5.865 -33.429 -28.681  0.00  0.00    +0.142 HD
ENDBRANCH  10  11
BRANCH  10  13
ATOM     13  C   TYR A   1      -7.864 -34.322 -26.461  0.00  0.00    +0.224 C 
ATOM     14  O   TYR A   1      -8.271 -34.737 -25.388  0.00  0.00    -0.287 OA
ENDBRANCH  10  13
ENDBRANCH   9  10
ENDBRANCH   1   9
TORSDOF 5
REMARK  Name = ../refined-set-2016/4mrz/4mrz_pocket.pdb
REMARK  109 active torsions:
REMARK  status: ('A' for Active; 'I' for Inactive)
REMARK    1  A    between atoms: _1  and  _3
REMARK    2  A    between atoms: _3  and  _4
REMARK    3  A    between atoms: _3  and  _6
REMARK    4  A    between atoms: _6  and  _7
REMARK    5  A    between atoms: _12  and  _13
REMARK    6  A    between atoms: _15  and  _17
REMARK    7  A    between atoms: _17  and  _18
REMARK    8  A    between atoms: _17  and  _20
REMARK    9  A    between atoms: _20  and  _21
REMARK   10  A    between atoms: _26  and  _28
REMARK   11  A    between atoms: _28  and  _29
REMARK   12  A    between atoms: _28  and  _31
REMARK   13  A    between atoms: _31  and  _32
REMARK   14  A    between atoms: _36  and  NI_273
REMARK   15  A    between atoms: _37  and  _39
REMARK   16  A    between atoms: _39  and  _40
REMARK   17  A    between atoms: _39  and  _42
REMARK   18  A    between atoms: _42  and  _43
REMARK   19  A    between atoms: _46  and  _48
REMARK   20  A    between atoms: _48  and  _49
REMARK   21  A    between atoms: _48  and  _51
REMARK   22  A    between atoms: _51  and  _52
REMARK   23  A    between atoms: _52  and  _54
REMARK   24  A    between atoms: _54  and  NI_273
REMARK   25  A    between atoms: _55  and  _57
REMARK   26  A    between atoms: _57  and  _58
REMARK   27  A    between atoms: _57  and  _60
REMARK   28  A    between atoms: _60  and  _61
REMARK   29  A    between atoms: _64  and  _66
REMARK   30  A    between atoms: _66  and  _67
REMARK   31  A    between atoms: _66  and  _69
REMARK   32  A    between atoms: _71  and  _73
REMARK   33  A    between atoms: _73  and  _74
REMARK   34  A    between atoms: _73  and  _76
REMARK   35  A    between atoms: _76  and  _77
REMARK   36  A    between atoms: _79  and  _81
REMARK   37  A    between atoms: _81  and  _82
REMARK   38  A    between atoms: _81  and  _84
REMARK   39  A    between atoms: _87  and  _89
REMARK   40  A    between atoms: _89  and  _90
REMARK   41  A    between atoms: _89  and  _92
REMARK   42  A    between atoms: _92  and  _93
REMARK   43  A    between atoms: _96  and  _98
REMARK   44  A    between atoms: _98  and  _99
REMARK   45  A    between atoms: _98  and  _101
REMARK   46  A    between atoms: _101  and  _102
REMARK   47  A    between atoms: _105  and  _107
REMARK   48  A    between atoms: _107  and  _108
REMARK   49  A    between atoms: _107  and  _110
REMARK   50  A    between atoms: _110  and  _111
REMARK   51  A    between atoms: _114  and  _116
REMARK   52  A    between atoms: _116  and  _117
REMARK   53  A    between atoms: _120  and  _122
REMARK   54  A    between atoms: _122  and  _123
REMARK   55  A    between atoms: _122  and  _125
REMARK   56  A    between atoms: _125  and  _126
REMARK   57  A    between atoms: _129  and  _131
REMARK   58  A    between atoms: _131  and  _132
REMARK   59  A    between atoms: _131  and  _134
REMARK   60  A    between atoms: _134  and  _135
REMARK   61  A    between atoms: _140  and  _141
REMARK   62  A    between atoms: _143  and  _145
REMARK   63  A    between atoms: _145  and  _146
REMARK   64  A    between atoms: _145  and  _148
REMARK   65  A    between atoms: _148  and  _149
REMARK   66  A    between atoms: _155  and  _157
REMARK   67  A    between atoms: _157  and  _158
REMARK   68  A    between atoms: _157  and  _160
REMARK   69  A    between atoms: _160  and  _161
REMARK   70  A    between atoms: _161  and  _162
REMARK   71  A    between atoms: _164  and  _166
REMARK   72  A    between atoms: _166  and  _167
REMARK   73  A    between atoms: _166  and  _169
REMARK   74  A    between atoms: _172  and  _174
REMARK   75  A    between atoms: _174  and  _175
REMARK   76  A    between atoms: _177  and  _179
REMARK   77  A    between atoms: _179  and  _180
REMARK   78  A    between atoms: _179  and  _182
REMARK   79  A    between atoms: _182  and  _183
REMARK   80  A    between atoms: _183  and  _184
REMARK   81  A    between atoms: _189  and  _191
REMARK   82  A    between atoms: _191  and  _192
REMARK   83  A    between atoms: _191  and  _194
REMARK   84  A    between atoms: _194  and  _195
REMARK   85  A    between atoms: _198  and  _200
REMARK   86  A    between atoms: _200  and  _201
REMARK   87  A    between atoms: _203  and  _205
REMARK   88  A    between atoms: _205  and  _206
REMARK   89  A    between atoms: _205  and  _208
REMARK   90  A    between atoms: _208  and  _209
REMARK   91  A    between atoms: _215  and  _217
REMARK   92  A    between atoms: _217  and  _218
REMARK   93  A    between atoms: _217  and  _220
REMARK   94  A    between atoms: _220  and  _221
REMARK   95  A    between atoms: _226  and  _227
REMARK   96  A    between atoms: _229  and  _231
REMARK   97  A    between atoms: _231  and  _232
REMARK   98  A    between atoms: _231  and  _234
REMARK   99  A    between atoms: _237  and  _239
REMARK  100  A    between atoms: _239  and  _240
REMARK  101  A    between atoms: _243  and  _245
REMARK  102  A    between atoms: _245  and  _246
REMARK  103  A    between atoms: _245  and  _248
REMARK  104  A    between atoms: _248  and  _249
REMARK  105  A    between atoms: _254  and  _255
REMARK  106  A    between atoms: _257  and  _259
REMARK  107  A    between atoms: _259  and  _260
REMARK  108  A    between atoms: _259  and  _262
REMARK  109  A    between atoms: _262  and  _263
REMARK                            x       y       z     vdW  Elec       q    Type
REMARK                         _______ _______ _______ _____ _____    ______ ____
ROOT
ATOM      1  CG  TRP A   1      -2.135 -19.839 -32.492  0.00  0.00    -0.002 A 
ATOM      2  CD1 TRP A   1      -1.905 -20.894 -31.659  0.00  0.00    +0.068 A 
ATOM      3  NE1 TRP A   1      -0.549 -20.979 -31.373  0.00  0.00    -0.352 N 
ATOM      4  HE1 TRP A   1      -0.102 -21.694 -30.765  0.00  0.00    +0.166 HD
ATOM      5  CE2 TRP A   1       0.101 -19.966 -32.023  0.00  0.00    +0.056 A 
ATOM      6  CZ2 TRP A   1       1.472 -19.630 -32.037  0.00  0.00    +0.017 A 
ATOM      7  CH2 TRP A   1       1.843 -18.547 -32.790  0.00  0.00    +0.001 A 
ATOM      8  CZ3 TRP A   1       0.910 -17.795 -33.509  0.00  0.00    +0.000 A 
ATOM      9  CE3 TRP A   1      -0.444 -18.122 -33.495  0.00  0.00    +0.001 A 
ATOM     10  CD2 TRP A   1      -0.863 -19.228 -32.738  0.00  0.00    +0.013 A 
ENDROOT
BRANCH   1  11
ATOM     11  CB  TRP A   1      -3.457 -19.381 -33.031  0.00  0.00    +0.053 C 
BRANCH  11  12
ATOM     12  CA  TRP A   1      -3.820 -17.985 -32.503  0.00  0.00    +0.137 C 
BRANCH  12  13
ATOM     13  N   TRP A   1      -4.257 -18.038 -31.104  0.00  0.00    -0.239 NA
ATOM     14  H   TRP A   1      -4.364 -18.959 -30.633  0.00  0.00    +0.142 HD
ENDBRANCH  12  13
BRANCH  12  15
ATOM     15  C   TRP A   1      -4.867 -17.319 -33.377  0.00  0.00    +0.224 C 
ATOM     16  O   TRP A   1      -4.528 -16.539 -34.263  0.00  0.00    -0.287 OA
ENDBRANCH  12  15
ENDBRANCH  11  12
ENDBRANCH   1  11
TORSDOF 4
REMARK  Name = ../refined-set-2016/4mrz/4mrz_pocket.pdb
REMARK  109 active torsions:
REMARK  status: ('A' for Active; 'I' for Inactive)
REMARK    1  A    between atoms: _1  and  _3
REMARK    2  A    between atoms: _3  and  _4
REMARK    3  A    between atoms: _3  and  _6
REMARK    4  A    between atoms: _6  and  _7
REMARK    5  A    between atoms: _12  and  _13
REMARK    6  A    between atoms: _15  and  _17
REMARK    7  A    between atoms: _17  and  _18
REMARK    8  A    between atoms: _17  and  _20
REMARK    9  A    between atoms: _20  and  _21
REMARK   10  A    between atoms: _26  and  _28
REMARK   11  A    between atoms: _28  and  _29
REMARK   12  A    between atoms: _28  and  _31
REMARK   13  A    between atoms: _31  and  _32
REMARK   14  A    between atoms: _36  and  NI_273
REMARK   15  A    between atoms: _37  and  _39
REMARK   16  A    between atoms: _39  and  _40
REMARK   17  A    between atoms: _39  and  _42
REMARK   18  A    between atoms: _42  and  _43
REMARK   19  A    between atoms: _46  and  _48
REMARK   20  A    between atoms: _48  and  _49
REMARK   21  A    between atoms: _48  and  _51
REMARK   22  A    between atoms: _51  and  _52
REMARK   23  A    between atoms: _52  and  _54
REMARK   24  A    between atoms: _54  and  NI_273
REMARK   25  A    between atoms: _55  and  _57
REMARK   26  A    between atoms: _57  and  _58
REMARK   27  A    between atoms: _57  and  _60
REMARK   28  A    between atoms: _60  and  _61
REMARK   29  A    between atoms: _64  and  _66
REMARK   30  A    between atoms: _66  and  _67
REMARK   31  A    between atoms: _66  and  _69
REMARK   32  A    between atoms: _71  and  _73
REMARK   33  A    between atoms: _73  and  _74
REMARK   34  A    between atoms: _73  and  _76
REMARK   35  A    between atoms: _76  and  _77
REMARK   36  A    between atoms: _79  and  _81
REMARK   37  A    between atoms: _81  and  _82
REMARK   38  A    between atoms: _81  and  _84
REMARK   39  A    between atoms: _87  and  _89
REMARK   40  A    between atoms: _89  and  _90
REMARK   41  A    between atoms: _89  and  _92
REMARK   42  A    between atoms: _92  and  _93
REMARK   43  A    between atoms: _96  and  _98
REMARK   44  A    between atoms: _98  and  _99
REMARK   45  A    between atoms: _98  and  _101
REMARK   46  A    between atoms: _101  and  _102
REMARK   47  A    between atoms: _105  and  _107
REMARK   48  A    between atoms: _107  and  _108
REMARK   49  A    between atoms: _107  and  _110
REMARK   50  A    between atoms: _110  and  _111
REMARK   51  A    between atoms: _114  and  _116
REMARK   52  A    between atoms: _116  and  _117
REMARK   53  A    between atoms: _120  and  _122
REMARK   54  A    between atoms: _122  and  _123
REMARK   55  A    between atoms: _122  and  _125
REMARK   56  A    between atoms: _125  and  _126
REMARK   57  A    between atoms: _129  and  _131
REMARK   58  A    between atoms: _131  and  _132
REMARK   59  A    between atoms: _131  and  _134
REMARK   60  A    between atoms: _134  and  _135
REMARK   61  A    between atoms: _140  and  _141
REMARK   62  A    between atoms: _143  and  _145
REMARK   63  A    between atoms: _145  and  _146
REMARK   64  A    between atoms: _145  and  _148
REMARK   65  A    between atoms: _148  and  _149
REMARK   66  A    between atoms: _155  and  _157
REMARK   67  A    between atoms: _157  and  _158
REMARK   68  A    between atoms: _157  and  _160
REMARK   69  A    between atoms: _160  and  _161
REMARK   70  A    between atoms: _161  and  _162
REMARK   71  A    between atoms: _164  and  _166
REMARK   72  A    between atoms: _166  and  _167
REMARK   73  A    between atoms: _166  and  _169
REMARK   74  A    between atoms: _172  and  _174
REMARK   75  A    between atoms: _174  and  _175
REMARK   76  A    between atoms: _177  and  _179
REMARK   77  A    between atoms: _179  and  _180
REMARK   78  A    between atoms: _179  and  _182
REMARK   79  A    between atoms: _182  and  _183
REMARK   80  A    between atoms: _183  and  _184
REMARK   81  A    between atoms: _189  and  _191
REMARK   82  A    between atoms: _191  and  _192
REMARK   83  A    between atoms: _191  and  _194
REMARK   84  A    between atoms: _194  and  _195
REMARK   85  A    between atoms: _198  and  _200
REMARK   86  A    between atoms: _200  and  _201
REMARK   87  A    between atoms: _203  and  _205
REMARK   88  A    between atoms: _205  and  _206
REMARK   89  A    between atoms: _205  and  _208
REMARK   90  A    between atoms: _208  and  _209
REMARK   91  A    between atoms: _215  and  _217
REMARK   92  A    between atoms: _217  and  _218
REMARK   93  A    between atoms: _217  and  _220
REMARK   94  A    between atoms: _220  and  _221
REMARK   95  A    between atoms: _226  and  _227
REMARK   96  A    between atoms: _229  and  _231
REMARK   97  A    between atoms: _231  and  _232
REMARK   98  A    between atoms: _231  and  _234
REMARK   99  A    between atoms: _237  and  _239
REMARK  100  A    between atoms: _239  and  _240
REMARK  101  A    between atoms: _243  and  _245
REMARK  102  A    between atoms: _245  and  _246
REMARK  103  A    between atoms: _245  and  _248
REMARK  104  A    between atoms: _248  and  _249
REMARK  105  A    between atoms: _254  and  _255
REMARK  106  A    between atoms: _257  and  _259
REMARK  107  A    between atoms: _259  and  _260
REMARK  108  A    between atoms: _259  and  _262
REMARK  109  A    between atoms: _262  and  _263
REMARK                            x       y       z     vdW  Elec       q    Type
REMARK                         _______ _______ _______ _____ _____    ______ ____
ROOT
ATOM      1  O   HOH     1       1.553 -23.094 -30.667  0.00  0.00    +0.000 OA
ENDROOT
TORSDOF 0
REMARK  Name = ../refined-set-2016/4mrz/4mrz_pocket.pdb
REMARK  109 active torsions:
REMARK  status: ('A' for Active; 'I' for Inactive)
REMARK    1  A    between atoms: _1  and  _3
REMARK    2  A    between atoms: _3  and  _4
REMARK    3  A    between atoms: _3  and  _6
REMARK    4  A    between atoms: _6  and  _7
REMARK    5  A    between atoms: _12  and  _13
REMARK    6  A    between atoms: _15  and  _17
REMARK    7  A    between atoms: _17  and  _18
REMARK    8  A    between atoms: _17  and  _20
REMARK    9  A    between atoms: _20  and  _21
REMARK   10  A    between atoms: _26  and  _28
REMARK   11  A    between atoms: _28  and  _29
REMARK   12  A    between atoms: _28  and  _31
REMARK   13  A    between atoms: _31  and  _32
REMARK   14  A    between atoms: _36  and  NI_273
REMARK   15  A    between atoms: _37  and  _39
REMARK   16  A    between atoms: _39  and  _40
REMARK   17  A    between atoms: _39  and  _42
REMARK   18  A    between atoms: _42  and  _43
REMARK   19  A    between atoms: _46  and  _48
REMARK   20  A    between atoms: _48  and  _49
REMARK   21  A    between atoms: _48  and  _51
REMARK   22  A    between atoms: _51  and  _52
REMARK   23  A    between atoms: _52  and  _54
REMARK   24  A    between atoms: _54  and  NI_273
REMARK   25  A    between atoms: _55  and  _57
REMARK   26  A    between atoms: _57  and  _58
REMARK   27  A    between atoms: _57  and  _60
REMARK   28  A    between atoms: _60  and  _61
REMARK   29  A    between atoms: _64  and  _66
REMARK   30  A    between atoms: _66  and  _67
REMARK   31  A    between atoms: _66  and  _69
REMARK   32  A    between atoms: _71  and  _73
REMARK   33  A    between atoms: _73  and  _74
REMARK   34  A    between atoms: _73  and  _76
REMARK   35  A    between atoms: _76  and  _77
REMARK   36  A    between atoms: _79  and  _81
REMARK   37  A    between atoms: _81  and  _82
REMARK   38  A    between atoms: _81  and  _84
REMARK   39  A    between atoms: _87  and  _89
REMARK   40  A    between atoms: _89  and  _90
REMARK   41  A    between atoms: _89  and  _92
REMARK   42  A    between atoms: _92  and  _93
REMARK   43  A    between atoms: _96  and  _98
REMARK   44  A    between atoms: _98  and  _99
REMARK   45  A    between atoms: _98  and  _101
REMARK   46  A    between atoms: _101  and  _102
REMARK   47  A    between atoms: _105  and  _107
REMARK   48  A    between atoms: _107  and  _108
REMARK   49  A    between atoms: _107  and  _110
REMARK   50  A    between atoms: _110  and  _111
REMARK   51  A    between atoms: _114  and  _116
REMARK   52  A    between atoms: _116  and  _117
REMARK   53  A    between atoms: _120  and  _122
REMARK   54  A    between atoms: _122  and  _123
REMARK   55  A    between atoms: _122  and  _125
REMARK   56  A    between atoms: _125  and  _126
REMARK   57  A    between atoms: _129  and  _131
REMARK   58  A    between atoms: _131  and  _132
REMARK   59  A    between atoms: _131  and  _134
REMARK   60  A    between atoms: _134  and  _135
REMARK   61  A    between atoms: _140  and  _141
REMARK   62  A    between atoms: _143  and  _145
REMARK   63  A    between atoms: _145  and  _146
REMARK   64  A    between atoms: _145  and  _148
REMARK   65  A    between atoms: _148  and  _149
REMARK   66  A    between atoms: _155  and  _157
REMARK   67  A    between atoms: _157  and  _158
REMARK   68  A    between atoms: _157  and  _160
REMARK   69  A    between atoms: _160  and  _161
REMARK   70  A    between atoms: _161  and  _162
REMARK   71  A    between atoms: _164  and  _166
REMARK   72  A    between atoms: _166  and  _167
REMARK   73  A    between atoms: _166  and  _169
REMARK   74  A    between atoms: _172  and  _174
REMARK   75  A    between atoms: _174  and  _175
REMARK   76  A    between atoms: _177  and  _179
REMARK   77  A    between atoms: _179  and  _180
REMARK   78  A    between atoms: _179  and  _182
REMARK   79  A    between atoms: _182  and  _183
REMARK   80  A    between atoms: _183  and  _184
REMARK   81  A    between atoms: _189  and  _191
REMARK   82  A    between atoms: _191  and  _192
REMARK   83  A    between atoms: _191  and  _194
REMARK   84  A    between atoms: _194  and  _195
REMARK   85  A    between atoms: _198  and  _200
REMARK   86  A    between atoms: _200  and  _201
REMARK   87  A    between atoms: _203  and  _205
REMARK   88  A    between atoms: _205  and  _206
REMARK   89  A    between atoms: _205  and  _208
REMARK   90  A    between atoms: _208  and  _209
REMARK   91  A    between atoms: _215  and  _217
REMARK   92  A    between atoms: _217  and  _218
REMARK   93  A    between atoms: _217  and  _220
REMARK   94  A    between atoms: _220  and  _221
REMARK   95  A    between atoms: _226  and  _227
REMARK   96  A    between atoms: _229  and  _231
REMARK   97  A    between atoms: _231  and  _232
REMARK   98  A    between atoms: _231  and  _234
REMARK   99  A    between atoms: _237  and  _239
REMARK  100  A    between atoms: _239  and  _240
REMARK  101  A    between atoms: _243  and  _245
REMARK  102  A    between atoms: _245  and  _246
REMARK  103  A    between atoms: _245  and  _248
REMARK  104  A    between atoms: _248  and  _249
REMARK  105  A    between atoms: _254  and  _255
REMARK  106  A    between atoms: _257  and  _259
REMARK  107  A    between atoms: _259  and  _260
REMARK  108  A    between atoms: _259  and  _262
REMARK  109  A    between atoms: _262  and  _263
REMARK                            x       y       z     vdW  Elec       q    Type
REMARK                         _______ _______ _______ _____ _____    ______ ____
ROOT
ATOM      1  O   HOH     1       5.807 -29.694 -26.783  0.00  0.00    +0.000 OA
ENDROOT
TORSDOF 0
REMARK  Name = ../refined-set-2016/4mrz/4mrz_pocket.pdb
REMARK  109 active torsions:
REMARK  status: ('A' for Active; 'I' for Inactive)
REMARK    1  A    between atoms: _1  and  _3
REMARK    2  A    between atoms: _3  and  _4
REMARK    3  A    between atoms: _3  and  _6
REMARK    4  A    between atoms: _6  and  _7
REMARK    5  A    between atoms: _12  and  _13
REMARK    6  A    between atoms: _15  and  _17
REMARK    7  A    between atoms: _17  and  _18
REMARK    8  A    between atoms: _17  and  _20
REMARK    9  A    between atoms: _20  and  _21
REMARK   10  A    between atoms: _26  and  _28
REMARK   11  A    between atoms: _28  and  _29
REMARK   12  A    between atoms: _28  and  _31
REMARK   13  A    between atoms: _31  and  _32
REMARK   14  A    between atoms: _36  and  NI_273
REMARK   15  A    between atoms: _37  and  _39
REMARK   16  A    between atoms: _39  and  _40
REMARK   17  A    between atoms: _39  and  _42
REMARK   18  A    between atoms: _42  and  _43
REMARK   19  A    between atoms: _46  and  _48
REMARK   20  A    between atoms: _48  and  _49
REMARK   21  A    between atoms: _48  and  _51
REMARK   22  A    between atoms: _51  and  _52
REMARK   23  A    between atoms: _52  and  _54
REMARK   24  A    between atoms: _54  and  NI_273
REMARK   25  A    between atoms: _55  and  _57
REMARK   26  A    between atoms: _57  and  _58
REMARK   27  A    between atoms: _57  and  _60
REMARK   28  A    between atoms: _60  and  _61
REMARK   29  A    between atoms: _64  and  _66
REMARK   30  A    between atoms: _66  and  _67
REMARK   31  A    between atoms: _66  and  _69
REMARK   32  A    between atoms: _71  and  _73
REMARK   33  A    between atoms: _73  and  _74
REMARK   34  A    between atoms: _73  and  _76
REMARK   35  A    between atoms: _76  and  _77
REMARK   36  A    between atoms: _79  and  _81
REMARK   37  A    between atoms: _81  and  _82
REMARK   38  A    between atoms: _81  and  _84
REMARK   39  A    between atoms: _87  and  _89
REMARK   40  A    between atoms: _89  and  _90
REMARK   41  A    between atoms: _89  and  _92
REMARK   42  A    between atoms: _92  and  _93
REMARK   43  A    between atoms: _96  and  _98
REMARK   44  A    between atoms: _98  and  _99
REMARK   45  A    between atoms: _98  and  _101
REMARK   46  A    between atoms: _101  and  _102
REMARK   47  A    between atoms: _105  and  _107
REMARK   48  A    between atoms: _107  and  _108
REMARK   49  A    between atoms: _107  and  _110
REMARK   50  A    between atoms: _110  and  _111
REMARK   51  A    between atoms: _114  and  _116
REMARK   52  A    between atoms: _116  and  _117
REMARK   53  A    between atoms: _120  and  _122
REMARK   54  A    between atoms: _122  and  _123
REMARK   55  A    between atoms: _122  and  _125
REMARK   56  A    between atoms: _125  and  _126
REMARK   57  A    between atoms: _129  and  _131
REMARK   58  A    between atoms: _131  and  _132
REMARK   59  A    between atoms: _131  and  _134
REMARK   60  A    between atoms: _134  and  _135
REMARK   61  A    between atoms: _140  and  _141
REMARK   62  A    between atoms: _143  and  _145
REMARK   63  A    between atoms: _145  and  _146
REMARK   64  A    between atoms: _145  and  _148
REMARK   65  A    between atoms: _148  and  _149
REMARK   66  A    between atoms: _155  and  _157
REMARK   67  A    between atoms: _157  and  _158
REMARK   68  A    between atoms: _157  and  _160
REMARK   69  A    between atoms: _160  and  _161
REMARK   70  A    between atoms: _161  and  _162
REMARK   71  A    between atoms: _164  and  _166
REMARK   72  A    between atoms: _166  and  _167
REMARK   73  A    between atoms: _166  and  _169
REMARK   74  A    between atoms: _172  and  _174
REMARK   75  A    between atoms: _174  and  _175
REMARK   76  A    between atoms: _177  and  _179
REMARK   77  A    between atoms: _179  and  _180
REMARK   78  A    between atoms: _179  and  _182
REMARK   79  A    between atoms: _182  and  _183
REMARK   80  A    between atoms: _183  and  _184
REMARK   81  A    between atoms: _189  and  _191
REMARK   82  A    between atoms: _191  and  _192
REMARK   83  A    between atoms: _191  and  _194
REMARK   84  A    between atoms: _194  and  _195
REMARK   85  A    between atoms: _198  and  _200
REMARK   86  A    between atoms: _200  and  _201
REMARK   87  A    between atoms: _203  and  _205
REMARK   88  A    between atoms: _205  and  _206
REMARK   89  A    between atoms: _205  and  _208
REMARK   90  A    between atoms: _208  and  _209
REMARK   91  A    between atoms: _215  and  _217
REMARK   92  A    between atoms: _217  and  _218
REMARK   93  A    between atoms: _217  and  _220
REMARK   94  A    between atoms: _220  and  _221
REMARK   95  A    between atoms: _226  and  _227
REMARK   96  A    between atoms: _229  and  _231
REMARK   97  A    between atoms: _231  and  _232
REMARK   98  A    between atoms: _231  and  _234
REMARK   99  A    between atoms: _237  and  _239
REMARK  100  A    between atoms: _239  and  _240
REMARK  101  A    between atoms: _243  and  _245
REMARK  102  A    between atoms: _245  and  _246
REMARK  103  A    between atoms: _245  and  _248
REMARK  104  A    between atoms: _248  and  _249
REMARK  105  A    between atoms: _254  and  _255
REMARK  106  A    between atoms: _257  and  _259
REMARK  107  A    between atoms: _259  and  _260
REMARK  108  A    between atoms: _259  and  _262
REMARK  109  A    between atoms: _262  and  _263
REMARK                            x       y       z     vdW  Elec       q    Type
REMARK                         _______ _______ _______ _____ _____    ______ ____
ROOT
ATOM      1  O   HOH     1       4.532 -36.954 -31.691  0.00  0.00    +0.000 OA
ENDROOT
TORSDOF 0
REMARK  Name = ../refined-set-2016/4mrz/4mrz_pocket.pdb
REMARK  109 active torsions:
REMARK  status: ('A' for Active; 'I' for Inactive)
REMARK    1  A    between atoms: _1  and  _3
REMARK    2  A    between atoms: _3  and  _4
REMARK    3  A    between atoms: _3  and  _6
REMARK    4  A    between atoms: _6  and  _7
REMARK    5  A    between atoms: _12  and  _13
REMARK    6  A    between atoms: _15  and  _17
REMARK    7  A    between atoms: _17  and  _18
REMARK    8  A    between atoms: _17  and  _20
REMARK    9  A    between atoms: _20  and  _21
REMARK   10  A    between atoms: _26  and  _28
REMARK   11  A    between atoms: _28  and  _29
REMARK   12  A    between atoms: _28  and  _31
REMARK   13  A    between atoms: _31  and  _32
REMARK   14  A    between atoms: _36  and  NI_273
REMARK   15  A    between atoms: _37  and  _39
REMARK   16  A    between atoms: _39  and  _40
REMARK   17  A    between atoms: _39  and  _42
REMARK   18  A    between atoms: _42  and  _43
REMARK   19  A    between atoms: _46  and  _48
REMARK   20  A    between atoms: _48  and  _49
REMARK   21  A    between atoms: _48  and  _51
REMARK   22  A    between atoms: _51  and  _52
REMARK   23  A    between atoms: _52  and  _54
REMARK   24  A    between atoms: _54  and  NI_273
REMARK   25  A    between atoms: _55  and  _57
REMARK   26  A    between atoms: _57  and  _58
REMARK   27  A    between atoms: _57  and  _60
REMARK   28  A    between atoms: _60  and  _61
REMARK   29  A    between atoms: _64  and  _66
REMARK   30  A    between atoms: _66  and  _67
REMARK   31  A    between atoms: _66  and  _69
REMARK   32  A    between atoms: _71  and  _73
REMARK   33  A    between atoms: _73  and  _74
REMARK   34  A    between atoms: _73  and  _76
REMARK   35  A    between atoms: _76  and  _77
REMARK   36  A    between atoms: _79  and  _81
REMARK   37  A    between atoms: _81  and  _82
REMARK   38  A    between atoms: _81  and  _84
REMARK   39  A    between atoms: _87  and  _89
REMARK   40  A    between atoms: _89  and  _90
REMARK   41  A    between atoms: _89  and  _92
REMARK   42  A    between atoms: _92  and  _93
REMARK   43  A    between atoms: _96  and  _98
REMARK   44  A    between atoms: _98  and  _99
REMARK   45  A    between atoms: _98  and  _101
REMARK   46  A    between atoms: _101  and  _102
REMARK   47  A    between atoms: _105  and  _107
REMARK   48  A    between atoms: _107  and  _108
REMARK   49  A    between atoms: _107  and  _110
REMARK   50  A    between atoms: _110  and  _111
REMARK   51  A    between atoms: _114  and  _116
REMARK   52  A    between atoms: _116  and  _117
REMARK   53  A    between atoms: _120  and  _122
REMARK   54  A    between atoms: _122  and  _123
REMARK   55  A    between atoms: _122  and  _125
REMARK   56  A    between atoms: _125  and  _126
REMARK   57  A    between atoms: _129  and  _131
REMARK   58  A    between atoms: _131  and  _132
REMARK   59  A    between atoms: _131  and  _134
REMARK   60  A    between atoms: _134  and  _135
REMARK   61  A    between atoms: _140  and  _141
REMARK   62  A    between atoms: _143  and  _145
REMARK   63  A    between atoms: _145  and  _146
REMARK   64  A    between atoms: _145  and  _148
REMARK   65  A    between atoms: _148  and  _149
REMARK   66  A    between atoms: _155  and  _157
REMARK   67  A    between atoms: _157  and  _158
REMARK   68  A    between atoms: _157  and  _160
REMARK   69  A    between atoms: _160  and  _161
REMARK   70  A    between atoms: _161  and  _162
REMARK   71  A    between atoms: _164  and  _166
REMARK   72  A    between atoms: _166  and  _167
REMARK   73  A    between atoms: _166  and  _169
REMARK   74  A    between atoms: _172  and  _174
REMARK   75  A    between atoms: _174  and  _175
REMARK   76  A    between atoms: _177  and  _179
REMARK   77  A    between atoms: _179  and  _180
REMARK   78  A    between atoms: _179  and  _182
REMARK   79  A    between atoms: _182  and  _183
REMARK   80  A    between atoms: _183  and  _184
REMARK   81  A    between atoms: _189  and  _191
REMARK   82  A    between atoms: _191  and  _192
REMARK   83  A    between atoms: _191  and  _194
REMARK   84  A    between atoms: _194  and  _195
REMARK   85  A    between atoms: _198  and  _200
REMARK   86  A    between atoms: _200  and  _201
REMARK   87  A    between atoms: _203  and  _205
REMARK   88  A    between atoms: _205  and  _206
REMARK   89  A    between atoms: _205  and  _208
REMARK   90  A    between atoms: _208  and  _209
REMARK   91  A    between atoms: _215  and  _217
REMARK   92  A    between atoms: _217  and  _218
REMARK   93  A    between atoms: _217  and  _220
REMARK   94  A    between atoms: _220  and  _221
REMARK   95  A    between atoms: _226  and  _227
REMARK   96  A    between atoms: _229  and  _231
REMARK   97  A    between atoms: _231  and  _232
REMARK   98  A    between atoms: _231  and  _234
REMARK   99  A    between atoms: _237  and  _239
REMARK  100  A    between atoms: _239  and  _240
REMARK  101  A    between atoms: _243  and  _245
REMARK  102  A    between atoms: _245  and  _246
REMARK  103  A    between atoms: _245  and  _248
REMARK  104  A    between atoms: _248  and  _249
REMARK  105  A    between atoms: _254  and  _255
REMARK  106  A    between atoms: _257  and  _259
REMARK  107  A    between atoms: _259  and  _260
REMARK  108  A    between atoms: _259  and  _262
REMARK  109  A    between atoms: _262  and  _263
REMARK                            x       y       z     vdW  Elec       q    Type
REMARK                         _______ _______ _______ _____ _____    ______ ____
ROOT
ATOM      1  O   HOH     1       6.793 -36.198 -35.773  0.00  0.00    +0.000 OA
ENDROOT
TORSDOF 0
REMARK  Name = ../refined-set-2016/4mrz/4mrz_pocket.pdb
REMARK  109 active torsions:
REMARK  status: ('A' for Active; 'I' for Inactive)
REMARK    1  A    between atoms: _1  and  _3
REMARK    2  A    between atoms: _3  and  _4
REMARK    3  A    between atoms: _3  and  _6
REMARK    4  A    between atoms: _6  and  _7
REMARK    5  A    between atoms: _12  and  _13
REMARK    6  A    between atoms: _15  and  _17
REMARK    7  A    between atoms: _17  and  _18
REMARK    8  A    between atoms: _17  and  _20
REMARK    9  A    between atoms: _20  and  _21
REMARK   10  A    between atoms: _26  and  _28
REMARK   11  A    between atoms: _28  and  _29
REMARK   12  A    between atoms: _28  and  _31
REMARK   13  A    between atoms: _31  and  _32
REMARK   14  A    between atoms: _36  and  NI_273
REMARK   15  A    between atoms: _37  and  _39
REMARK   16  A    between atoms: _39  and  _40
REMARK   17  A    between atoms: _39  and  _42
REMARK   18  A    between atoms: _42  and  _43
REMARK   19  A    between atoms: _46  and  _48
REMARK   20  A    between atoms: _48  and  _49
REMARK   21  A    between atoms: _48  and  _51
REMARK   22  A    between atoms: _51  and  _52
REMARK   23  A    between atoms: _52  and  _54
REMARK   24  A    between atoms: _54  and  NI_273
REMARK   25  A    between atoms: _55  and  _57
REMARK   26  A    between atoms: _57  and  _58
REMARK   27  A    between atoms: _57  and  _60
REMARK   28  A    between atoms: _60  and  _61
REMARK   29  A    between atoms: _64  and  _66
REMARK   30  A    between atoms: _66  and  _67
REMARK   31  A    between atoms: _66  and  _69
REMARK   32  A    between atoms: _71  and  _73
REMARK   33  A    between atoms: _73  and  _74
REMARK   34  A    between atoms: _73  and  _76
REMARK   35  A    between atoms: _76  and  _77
REMARK   36  A    between atoms: _79  and  _81
REMARK   37  A    between atoms: _81  and  _82
REMARK   38  A    between atoms: _81  and  _84
REMARK   39  A    between atoms: _87  and  _89
REMARK   40  A    between atoms: _89  and  _90
REMARK   41  A    between atoms: _89  and  _92
REMARK   42  A    between atoms: _92  and  _93
REMARK   43  A    between atoms: _96  and  _98
REMARK   44  A    between atoms: _98  and  _99
REMARK   45  A    between atoms: _98  and  _101
REMARK   46  A    between atoms: _101  and  _102
REMARK   47  A    between atoms: _105  and  _107
REMARK   48  A    between atoms: _107  and  _108
REMARK   49  A    between atoms: _107  and  _110
REMARK   50  A    between atoms: _110  and  _111
REMARK   51  A    between atoms: _114  and  _116
REMARK   52  A    between atoms: _116  and  _117
REMARK   53  A    between atoms: _120  and  _122
REMARK   54  A    between atoms: _122  and  _123
REMARK   55  A    between atoms: _122  and  _125
REMARK   56  A    between atoms: _125  and  _126
REMARK   57  A    between atoms: _129  and  _131
REMARK   58  A    between atoms: _131  and  _132
REMARK   59  A    between atoms: _131  and  _134
REMARK   60  A    between atoms: _134  and  _135
REMARK   61  A    between atoms: _140  and  _141
REMARK   62  A    between atoms: _143  and  _145
REMARK   63  A    between atoms: _145  and  _146
REMARK   64  A    between atoms: _145  and  _148
REMARK   65  A    between atoms: _148  and  _149
REMARK   66  A    between atoms: _155  and  _157
REMARK   67  A    between atoms: _157  and  _158
REMARK   68  A    between atoms: _157  and  _160
REMARK   69  A    between atoms: _160  and  _161
REMARK   70  A    between atoms: _161  and  _162
REMARK   71  A    between atoms: _164  and  _166
REMARK   72  A    between atoms: _166  and  _167
REMARK   73  A    between atoms: _166  and  _169
REMARK   74  A    between atoms: _172  and  _174
REMARK   75  A    between atoms: _174  and  _175
REMARK   76  A    between atoms: _177  and  _179
REMARK   77  A    between atoms: _179  and  _180
REMARK   78  A    between atoms: _179  and  _182
REMARK   79  A    between atoms: _182  and  _183
REMARK   80  A    between atoms: _183  and  _184
REMARK   81  A    between atoms: _189  and  _191
REMARK   82  A    between atoms: _191  and  _192
REMARK   83  A    between atoms: _191  and  _194
REMARK   84  A    between atoms: _194  and  _195
REMARK   85  A    between atoms: _198  and  _200
REMARK   86  A    between atoms: _200  and  _201
REMARK   87  A    between atoms: _203  and  _205
REMARK   88  A    between atoms: _205  and  _206
REMARK   89  A    between atoms: _205  and  _208
REMARK   90  A    between atoms: _208  and  _209
REMARK   91  A    between atoms: _215  and  _217
REMARK   92  A    between atoms: _217  and  _218
REMARK   93  A    between atoms: _217  and  _220
REMARK   94  A    between atoms: _220  and  _221
REMARK   95  A    between atoms: _226  and  _227
REMARK   96  A    between atoms: _229  and  _231
REMARK   97  A    between atoms: _231  and  _232
REMARK   98  A    between atoms: _231  and  _234
REMARK   99  A    between atoms: _237  and  _239
REMARK  100  A    between atoms: _239  and  _240
REMARK  101  A    between atoms: _243  and  _245
REMARK  102  A    between atoms: _245  and  _246
REMARK  103  A    between atoms: _245  and  _248
REMARK  104  A    between atoms: _248  and  _249
REMARK  105  A    between atoms: _254  and  _255
REMARK  106  A    between atoms: _257  and  _259
REMARK  107  A    between atoms: _259  and  _260
REMARK  108  A    between atoms: _259  and  _262
REMARK  109  A    between atoms: _262  and  _263
REMARK                            x       y       z     vdW  Elec       q    Type
REMARK                         _______ _______ _______ _____ _____    ______ ____
ROOT
ATOM      1  O   HOH     1       3.726 -21.667 -40.790  0.00  0.00    +0.000 OA
ENDROOT
TORSDOF 0
REMARK  Name = ../refined-set-2016/4mrz/4mrz_pocket.pdb
REMARK  109 active torsions:
REMARK  status: ('A' for Active; 'I' for Inactive)
REMARK    1  A    between atoms: _1  and  _3
REMARK    2  A    between atoms: _3  and  _4
REMARK    3  A    between atoms: _3  and  _6
REMARK    4  A    between atoms: _6  and  _7
REMARK    5  A    between atoms: _12  and  _13
REMARK    6  A    between atoms: _15  and  _17
REMARK    7  A    between atoms: _17  and  _18
REMARK    8  A    between atoms: _17  and  _20
REMARK    9  A    between atoms: _20  and  _21
REMARK   10  A    between atoms: _26  and  _28
REMARK   11  A    between atoms: _28  and  _29
REMARK   12  A    between atoms: _28  and  _31
REMARK   13  A    between atoms: _31  and  _32
REMARK   14  A    between atoms: _36  and  NI_273
REMARK   15  A    between atoms: _37  and  _39
REMARK   16  A    between atoms: _39  and  _40
REMARK   17  A    between atoms: _39  and  _42
REMARK   18  A    between atoms: _42  and  _43
REMARK   19  A    between atoms: _46  and  _48
REMARK   20  A    between atoms: _48  and  _49
REMARK   21  A    between atoms: _48  and  _51
REMARK   22  A    between atoms: _51  and  _52
REMARK   23  A    between atoms: _52  and  _54
REMARK   24  A    between atoms: _54  and  NI_273
REMARK   25  A    between atoms: _55  and  _57
REMARK   26  A    between atoms: _57  and  _58
REMARK   27  A    between atoms: _57  and  _60
REMARK   28  A    between atoms: _60  and  _61
REMARK   29  A    between atoms: _64  and  _66
REMARK   30  A    between atoms: _66  and  _67
REMARK   31  A    between atoms: _66  and  _69
REMARK   32  A    between atoms: _71  and  _73
REMARK   33  A    between atoms: _73  and  _74
REMARK   34  A    between atoms: _73  and  _76
REMARK   35  A    between atoms: _76  and  _77
REMARK   36  A    between atoms: _79  and  _81
REMARK   37  A    between atoms: _81  and  _82
REMARK   38  A    between atoms: _81  and  _84
REMARK   39  A    between atoms: _87  and  _89
REMARK   40  A    between atoms: _89  and  _90
REMARK   41  A    between atoms: _89  and  _92
REMARK   42  A    between atoms: _92  and  _93
REMARK   43  A    between atoms: _96  and  _98
REMARK   44  A    between atoms: _98  and  _99
REMARK   45  A    between atoms: _98  and  _101
REMARK   46  A    between atoms: _101  and  _102
REMARK   47  A    between atoms: _105  and  _107
REMARK   48  A    between atoms: _107  and  _108
REMARK   49  A    between atoms: _107  and  _110
REMARK   50  A    between atoms: _110  and  _111
REMARK   51  A    between atoms: _114  and  _116
REMARK   52  A    between atoms: _116  and  _117
REMARK   53  A    between atoms: _120  and  _122
REMARK   54  A    between atoms: _122  and  _123
REMARK   55  A    between atoms: _122  and  _125
REMARK   56  A    between atoms: _125  and  _126
REMARK   57  A    between atoms: _129  and  _131
REMARK   58  A    between atoms: _131  and  _132
REMARK   59  A    between atoms: _131  and  _134
REMARK   60  A    between atoms: _134  and  _135
REMARK   61  A    between atoms: _140  and  _141
REMARK   62  A    between atoms: _143  and  _145
REMARK   63  A    between atoms: _145  and  _146
REMARK   64  A    between atoms: _145  and  _148
REMARK   65  A    between atoms: _148  and  _149
REMARK   66  A    between atoms: _155  and  _157
REMARK   67  A    between atoms: _157  and  _158
REMARK   68  A    between atoms: _157  and  _160
REMARK   69  A    between atoms: _160  and  _161
REMARK   70  A    between atoms: _161  and  _162
REMARK   71  A    between atoms: _164  and  _166
REMARK   72  A    between atoms: _166  and  _167
REMARK   73  A    between atoms: _166  and  _169
REMARK   74  A    between atoms: _172  and  _174
REMARK   75  A    between atoms: _174  and  _175
REMARK   76  A    between atoms: _177  and  _179
REMARK   77  A    between atoms: _179  and  _180
REMARK   78  A    between atoms: _179  and  _182
REMARK   79  A    between atoms: _182  and  _183
REMARK   80  A    between atoms: _183  and  _184
REMARK   81  A    between atoms: _189  and  _191
REMARK   82  A    between atoms: _191  and  _192
REMARK   83  A    between atoms: _191  and  _194
REMARK   84  A    between atoms: _194  and  _195
REMARK   85  A    between atoms: _198  and  _200
REMARK   86  A    between atoms: _200  and  _201
REMARK   87  A    between atoms: _203  and  _205
REMARK   88  A    between atoms: _205  and  _206
REMARK   89  A    between atoms: _205  and  _208
REMARK   90  A    between atoms: _208  and  _209
REMARK   91  A    between atoms: _215  and  _217
REMARK   92  A    between atoms: _217  and  _218
REMARK   93  A    between atoms: _217  and  _220
REMARK   94  A    between atoms: _220  and  _221
REMARK   95  A    between atoms: _226  and  _227
REMARK   96  A    between atoms: _229  and  _231
REMARK   97  A    between atoms: _231  and  _232
REMARK   98  A    between atoms: _231  and  _234
REMARK   99  A    between atoms: _237  and  _239
REMARK  100  A    between atoms: _239  and  _240
REMARK  101  A    between atoms: _243  and  _245
REMARK  102  A    between atoms: _245  and  _246
REMARK  103  A    between atoms: _245  and  _248
REMARK  104  A    between atoms: _248  and  _249
REMARK  105  A    between atoms: _254  and  _255
REMARK  106  A    between atoms: _257  and  _259
REMARK  107  A    between atoms: _259  and  _260
REMARK  108  A    between atoms: _259  and  _262
REMARK  109  A    between atoms: _262  and  _263
REMARK                            x       y       z     vdW  Elec       q    Type
REMARK                         _______ _______ _______ _____ _____    ______ ____
ROOT
ATOM      1  O   HOH     1       8.898 -32.994 -31.120  0.00  0.00    +0.000 OA
ENDROOT
TORSDOF 0
REMARK  Name = ../refined-set-2016/4mrz/4mrz_pocket.pdb
REMARK  109 active torsions:
REMARK  status: ('A' for Active; 'I' for Inactive)
REMARK    1  A    between atoms: _1  and  _3
REMARK    2  A    between atoms: _3  and  _4
REMARK    3  A    between atoms: _3  and  _6
REMARK    4  A    between atoms: _6  and  _7
REMARK    5  A    between atoms: _12  and  _13
REMARK    6  A    between atoms: _15  and  _17
REMARK    7  A    between atoms: _17  and  _18
REMARK    8  A    between atoms: _17  and  _20
REMARK    9  A    between atoms: _20  and  _21
REMARK   10  A    between atoms: _26  and  _28
REMARK   11  A    between atoms: _28  and  _29
REMARK   12  A    between atoms: _28  and  _31
REMARK   13  A    between atoms: _31  and  _32
REMARK   14  A    between atoms: _36  and  NI_273
REMARK   15  A    between atoms: _37  and  _39
REMARK   16  A    between atoms: _39  and  _40
REMARK   17  A    between atoms: _39  and  _42
REMARK   18  A    between atoms: _42  and  _43
REMARK   19  A    between atoms: _46  and  _48
REMARK   20  A    between atoms: _48  and  _49
REMARK   21  A    between atoms: _48  and  _51
REMARK   22  A    between atoms: _51  and  _52
REMARK   23  A    between atoms: _52  and  _54
REMARK   24  A    between atoms: _54  and  NI_273
REMARK   25  A    between atoms: _55  and  _57
REMARK   26  A    between atoms: _57  and  _58
REMARK   27  A    between atoms: _57  and  _60
REMARK   28  A    between atoms: _60  and  _61
REMARK   29  A    between atoms: _64  and  _66
REMARK   30  A    between atoms: _66  and  _67
REMARK   31  A    between atoms: _66  and  _69
REMARK   32  A    between atoms: _71  and  _73
REMARK   33  A    between atoms: _73  and  _74
REMARK   34  A    between atoms: _73  and  _76
REMARK   35  A    between atoms: _76  and  _77
REMARK   36  A    between atoms: _79  and  _81
REMARK   37  A    between atoms: _81  and  _82
REMARK   38  A    between atoms: _81  and  _84
REMARK   39  A    between atoms: _87  and  _89
REMARK   40  A    between atoms: _89  and  _90
REMARK   41  A    between atoms: _89  and  _92
REMARK   42  A    between atoms: _92  and  _93
REMARK   43  A    between atoms: _96  and  _98
REMARK   44  A    between atoms: _98  and  _99
REMARK   45  A    between atoms: _98  and  _101
REMARK   46  A    between atoms: _101  and  _102
REMARK   47  A    between atoms: _105  and  _107
REMARK   48  A    between atoms: _107  and  _108
REMARK   49  A    between atoms: _107  and  _110
REMARK   50  A    between atoms: _110  and  _111
REMARK   51  A    between atoms: _114  and  _116
REMARK   52  A    between atoms: _116  and  _117
REMARK   53  A    between atoms: _120  and  _122
REMARK   54  A    between atoms: _122  and  _123
REMARK   55  A    between atoms: _122  and  _125
REMARK   56  A    between atoms: _125  and  _126
REMARK   57  A    between atoms: _129  and  _131
REMARK   58  A    between atoms: _131  and  _132
REMARK   59  A    between atoms: _131  and  _134
REMARK   60  A    between atoms: _134  and  _135
REMARK   61  A    between atoms: _140  and  _141
REMARK   62  A    between atoms: _143  and  _145
REMARK   63  A    between atoms: _145  and  _146
REMARK   64  A    between atoms: _145  and  _148
REMARK   65  A    between atoms: _148  and  _149
REMARK   66  A    between atoms: _155  and  _157
REMARK   67  A    between atoms: _157  and  _158
REMARK   68  A    between atoms: _157  and  _160
REMARK   69  A    between atoms: _160  and  _161
REMARK   70  A    between atoms: _161  and  _162
REMARK   71  A    between atoms: _164  and  _166
REMARK   72  A    between atoms: _166  and  _167
REMARK   73  A    between atoms: _166  and  _169
REMARK   74  A    between atoms: _172  and  _174
REMARK   75  A    between atoms: _174  and  _175
REMARK   76  A    between atoms: _177  and  _179
REMARK   77  A    between atoms: _179  and  _180
REMARK   78  A    between atoms: _179  and  _182
REMARK   79  A    between atoms: _182  and  _183
REMARK   80  A    between atoms: _183  and  _184
REMARK   81  A    between atoms: _189  and  _191
REMARK   82  A    between atoms: _191  and  _192
REMARK   83  A    between atoms: _191  and  _194
REMARK   84  A    between atoms: _194  and  _195
REMARK   85  A    between atoms: _198  and  _200
REMARK   86  A    between atoms: _200  and  _201
REMARK   87  A    between atoms: _203  and  _205
REMARK   88  A    between atoms: _205  and  _206
REMARK   89  A    between atoms: _205  and  _208
REMARK   90  A    between atoms: _208  and  _209
REMARK   91  A    between atoms: _215  and  _217
REMARK   92  A    between atoms: _217  and  _218
REMARK   93  A    between atoms: _217  and  _220
REMARK   94  A    between atoms: _220  and  _221
REMARK   95  A    between atoms: _226  and  _227
REMARK   96  A    between atoms: _229  and  _231
REMARK   97  A    between atoms: _231  and  _232
REMARK   98  A    between atoms: _231  and  _234
REMARK   99  A    between atoms: _237  and  _239
REMARK  100  A    between atoms: _239  and  _240
REMARK  101  A    between atoms: _243  and  _245
REMARK  102  A    between atoms: _245  and  _246
REMARK  103  A    between atoms: _245  and  _248
REMARK  104  A    between atoms: _248  and  _249
REMARK  105  A    between atoms: _254  and  _255
REMARK  106  A    between atoms: _257  and  _259
REMARK  107  A    between atoms: _259  and  _260
REMARK  108  A    between atoms: _259  and  _262
REMARK  109  A    between atoms: _262  and  _263
REMARK                            x       y       z     vdW  Elec       q    Type
REMARK                         _______ _______ _______ _____ _____    ______ ____
ROOT
ATOM      1  O   HOH     1      11.415 -34.335 -36.062  0.00  0.00    +0.000 OA
ENDROOT
TORSDOF 0
REMARK  Name = ../refined-set-2016/4mrz/4mrz_pocket.pdb
REMARK  109 active torsions:
REMARK  status: ('A' for Active; 'I' for Inactive)
REMARK    1  A    between atoms: _1  and  _3
REMARK    2  A    between atoms: _3  and  _4
REMARK    3  A    between atoms: _3  and  _6
REMARK    4  A    between atoms: _6  and  _7
REMARK    5  A    between atoms: _12  and  _13
REMARK    6  A    between atoms: _15  and  _17
REMARK    7  A    between atoms: _17  and  _18
REMARK    8  A    between atoms: _17  and  _20
REMARK    9  A    between atoms: _20  and  _21
REMARK   10  A    between atoms: _26  and  _28
REMARK   11  A    between atoms: _28  and  _29
REMARK   12  A    between atoms: _28  and  _31
REMARK   13  A    between atoms: _31  and  _32
REMARK   14  A    between atoms: _36  and  NI_273
REMARK   15  A    between atoms: _37  and  _39
REMARK   16  A    between atoms: _39  and  _40
REMARK   17  A    between atoms: _39  and  _42
REMARK   18  A    between atoms: _42  and  _43
REMARK   19  A    between atoms: _46  and  _48
REMARK   20  A    between atoms: _48  and  _49
REMARK   21  A    between atoms: _48  and  _51
REMARK   22  A    between atoms: _51  and  _52
REMARK   23  A    between atoms: _52  and  _54
REMARK   24  A    between atoms: _54  and  NI_273
REMARK   25  A    between atoms: _55  and  _57
REMARK   26  A    between atoms: _57  and  _58
REMARK   27  A    between atoms: _57  and  _60
REMARK   28  A    between atoms: _60  and  _61
REMARK   29  A    between atoms: _64  and  _66
REMARK   30  A    between atoms: _66  and  _67
REMARK   31  A    between atoms: _66  and  _69
REMARK   32  A    between atoms: _71  and  _73
REMARK   33  A    between atoms: _73  and  _74
REMARK   34  A    between atoms: _73  and  _76
REMARK   35  A    between atoms: _76  and  _77
REMARK   36  A    between atoms: _79  and  _81
REMARK   37  A    between atoms: _81  and  _82
REMARK   38  A    between atoms: _81  and  _84
REMARK   39  A    between atoms: _87  and  _89
REMARK   40  A    between atoms: _89  and  _90
REMARK   41  A    between atoms: _89  and  _92
REMARK   42  A    between atoms: _92  and  _93
REMARK   43  A    between atoms: _96  and  _98
REMARK   44  A    between atoms: _98  and  _99
REMARK   45  A    between atoms: _98  and  _101
REMARK   46  A    between atoms: _101  and  _102
REMARK   47  A    between atoms: _105  and  _107
REMARK   48  A    between atoms: _107  and  _108
REMARK   49  A    between atoms: _107  and  _110
REMARK   50  A    between atoms: _110  and  _111
REMARK   51  A    between atoms: _114  and  _116
REMARK   52  A    between atoms: _116  and  _117
REMARK   53  A    between atoms: _120  and  _122
REMARK   54  A    between atoms: _122  and  _123
REMARK   55  A    between atoms: _122  and  _125
REMARK   56  A    between atoms: _125  and  _126
REMARK   57  A    between atoms: _129  and  _131
REMARK   58  A    between atoms: _131  and  _132
REMARK   59  A    between atoms: _131  and  _134
REMARK   60  A    between atoms: _134  and  _135
REMARK   61  A    between atoms: _140  and  _141
REMARK   62  A    between atoms: _143  and  _145
REMARK   63  A    between atoms: _145  and  _146
REMARK   64  A    between atoms: _145  and  _148
REMARK   65  A    between atoms: _148  and  _149
REMARK   66  A    between atoms: _155  and  _157
REMARK   67  A    between atoms: _157  and  _158
REMARK   68  A    between atoms: _157  and  _160
REMARK   69  A    between atoms: _160  and  _161
REMARK   70  A    between atoms: _161  and  _162
REMARK   71  A    between atoms: _164  and  _166
REMARK   72  A    between atoms: _166  and  _167
REMARK   73  A    between atoms: _166  and  _169
REMARK   74  A    between atoms: _172  and  _174
REMARK   75  A    between atoms: _174  and  _175
REMARK   76  A    between atoms: _177  and  _179
REMARK   77  A    between atoms: _179  and  _180
REMARK   78  A    between atoms: _179  and  _182
REMARK   79  A    between atoms: _182  and  _183
REMARK   80  A    between atoms: _183  and  _184
REMARK   81  A    between atoms: _189  and  _191
REMARK   82  A    between atoms: _191  and  _192
REMARK   83  A    between atoms: _191  and  _194
REMARK   84  A    between atoms: _194  and  _195
REMARK   85  A    between atoms: _198  and  _200
REMARK   86  A    between atoms: _200  and  _201
REMARK   87  A    between atoms: _203  and  _205
REMARK   88  A    between atoms: _205  and  _206
REMARK   89  A    between atoms: _205  and  _208
REMARK   90  A    between atoms: _208  and  _209
REMARK   91  A    between atoms: _215  and  _217
REMARK   92  A    between atoms: _217  and  _218
REMARK   93  A    between atoms: _217  and  _220
REMARK   94  A    between atoms: _220  and  _221
REMARK   95  A    between atoms: _226  and  _227
REMARK   96  A    between atoms: _229  and  _231
REMARK   97  A    between atoms: _231  and  _232
REMARK   98  A    between atoms: _231  and  _234
REMARK   99  A    between atoms: _237  and  _239
REMARK  100  A    between atoms: _239  and  _240
REMARK  101  A    between atoms: _243  and  _245
REMARK  102  A    between atoms: _245  and  _246
REMARK  103  A    between atoms: _245  and  _248
REMARK  104  A    between atoms: _248  and  _249
REMARK  105  A    between atoms: _254  and  _255
REMARK  106  A    between atoms: _257  and  _259
REMARK  107  A    between atoms: _259  and  _260
REMARK  108  A    between atoms: _259  and  _262
REMARK  109  A    between atoms: _262  and  _263
REMARK                            x       y       z     vdW  Elec       q    Type
REMARK                         _______ _______ _______ _____ _____    ______ ____
ROOT
ATOM      1  O   HOH     1       8.330 -28.985 -25.920  0.00  0.00    +0.000 OA
ENDROOT
TORSDOF 0
REMARK  Name = ../refined-set-2016/4mrz/4mrz_pocket.pdb
REMARK  109 active torsions:
REMARK  status: ('A' for Active; 'I' for Inactive)
REMARK    1  A    between atoms: _1  and  _3
REMARK    2  A    between atoms: _3  and  _4
REMARK    3  A    between atoms: _3  and  _6
REMARK    4  A    between atoms: _6  and  _7
REMARK    5  A    between atoms: _12  and  _13
REMARK    6  A    between atoms: _15  and  _17
REMARK    7  A    between atoms: _17  and  _18
REMARK    8  A    between atoms: _17  and  _20
REMARK    9  A    between atoms: _20  and  _21
REMARK   10  A    between atoms: _26  and  _28
REMARK   11  A    between atoms: _28  and  _29
REMARK   12  A    between atoms: _28  and  _31
REMARK   13  A    between atoms: _31  and  _32
REMARK   14  A    between atoms: _36  and  NI_273
REMARK   15  A    between atoms: _37  and  _39
REMARK   16  A    between atoms: _39  and  _40
REMARK   17  A    between atoms: _39  and  _42
REMARK   18  A    between atoms: _42  and  _43
REMARK   19  A    between atoms: _46  and  _48
REMARK   20  A    between atoms: _48  and  _49
REMARK   21  A    between atoms: _48  and  _51
REMARK   22  A    between atoms: _51  and  _52
REMARK   23  A    between atoms: _52  and  _54
REMARK   24  A    between atoms: _54  and  NI_273
REMARK   25  A    between atoms: _55  and  _57
REMARK   26  A    between atoms: _57  and  _58
REMARK   27  A    between atoms: _57  and  _60
REMARK   28  A    between atoms: _60  and  _61
REMARK   29  A    between atoms: _64  and  _66
REMARK   30  A    between atoms: _66  and  _67
REMARK   31  A    between atoms: _66  and  _69
REMARK   32  A    between atoms: _71  and  _73
REMARK   33  A    between atoms: _73  and  _74
REMARK   34  A    between atoms: _73  and  _76
REMARK   35  A    between atoms: _76  and  _77
REMARK   36  A    between atoms: _79  and  _81
REMARK   37  A    between atoms: _81  and  _82
REMARK   38  A    between atoms: _81  and  _84
REMARK   39  A    between atoms: _87  and  _89
REMARK   40  A    between atoms: _89  and  _90
REMARK   41  A    between atoms: _89  and  _92
REMARK   42  A    between atoms: _92  and  _93
REMARK   43  A    between atoms: _96  and  _98
REMARK   44  A    between atoms: _98  and  _99
REMARK   45  A    between atoms: _98  and  _101
REMARK   46  A    between atoms: _101  and  _102
REMARK   47  A    between atoms: _105  and  _107
REMARK   48  A    between atoms: _107  and  _108
REMARK   49  A    between atoms: _107  and  _110
REMARK   50  A    between atoms: _110  and  _111
REMARK   51  A    between atoms: _114  and  _116
REMARK   52  A    between atoms: _116  and  _117
REMARK   53  A    between atoms: _120  and  _122
REMARK   54  A    between atoms: _122  and  _123
REMARK   55  A    between atoms: _122  and  _125
REMARK   56  A    between atoms: _125  and  _126
REMARK   57  A    between atoms: _129  and  _131
REMARK   58  A    between atoms: _131  and  _132
REMARK   59  A    between atoms: _131  and  _134
REMARK   60  A    between atoms: _134  and  _135
REMARK   61  A    between atoms: _140  and  _141
REMARK   62  A    between atoms: _143  and  _145
REMARK   63  A    between atoms: _145  and  _146
REMARK   64  A    between atoms: _145  and  _148
REMARK   65  A    between atoms: _148  and  _149
REMARK   66  A    between atoms: _155  and  _157
REMARK   67  A    between atoms: _157  and  _158
REMARK   68  A    between atoms: _157  and  _160
REMARK   69  A    between atoms: _160  and  _161
REMARK   70  A    between atoms: _161  and  _162
REMARK   71  A    between atoms: _164  and  _166
REMARK   72  A    between atoms: _166  and  _167
REMARK   73  A    between atoms: _166  and  _169
REMARK   74  A    between atoms: _172  and  _174
REMARK   75  A    between atoms: _174  and  _175
REMARK   76  A    between atoms: _177  and  _179
REMARK   77  A    between atoms: _179  and  _180
REMARK   78  A    between atoms: _179  and  _182
REMARK   79  A    between atoms: _182  and  _183
REMARK   80  A    between atoms: _183  and  _184
REMARK   81  A    between atoms: _189  and  _191
REMARK   82  A    between atoms: _191  and  _192
REMARK   83  A    between atoms: _191  and  _194
REMARK   84  A    between atoms: _194  and  _195
REMARK   85  A    between atoms: _198  and  _200
REMARK   86  A    between atoms: _200  and  _201
REMARK   87  A    between atoms: _203  and  _205
REMARK   88  A    between atoms: _205  and  _206
REMARK   89  A    between atoms: _205  and  _208
REMARK   90  A    between atoms: _208  and  _209
REMARK   91  A    between atoms: _215  and  _217
REMARK   92  A    between atoms: _217  and  _218
REMARK   93  A    between atoms: _217  and  _220
REMARK   94  A    between atoms: _220  and  _221
REMARK   95  A    between atoms: _226  and  _227
REMARK   96  A    between atoms: _229  and  _231
REMARK   97  A    between atoms: _231  and  _232
REMARK   98  A    between atoms: _231  and  _234
REMARK   99  A    between atoms: _237  and  _239
REMARK  100  A    between atoms: _239  and  _240
REMARK  101  A    between atoms: _243  and  _245
REMARK  102  A    between atoms: _245  and  _246
REMARK  103  A    between atoms: _245  and  _248
REMARK  104  A    between atoms: _248  and  _249
REMARK  105  A    between atoms: _254  and  _255
REMARK  106  A    between atoms: _257  and  _259
REMARK  107  A    between atoms: _259  and  _260
REMARK  108  A    between atoms: _259  and  _262
REMARK  109  A    between atoms: _262  and  _263
REMARK                            x       y       z     vdW  Elec       q    Type
REMARK                         _______ _______ _______ _____ _____    ______ ____
ROOT
ATOM      1  O   HOH     1       3.823 -23.962 -29.184  0.00  0.00    +0.000 OA
ENDROOT
TORSDOF 0
REMARK  Name = ../refined-set-2016/4mrz/4mrz_pocket.pdb
REMARK  109 active torsions:
REMARK  status: ('A' for Active; 'I' for Inactive)
REMARK    1  A    between atoms: _1  and  _3
REMARK    2  A    between atoms: _3  and  _4
REMARK    3  A    between atoms: _3  and  _6
REMARK    4  A    between atoms: _6  and  _7
REMARK    5  A    between atoms: _12  and  _13
REMARK    6  A    between atoms: _15  and  _17
REMARK    7  A    between atoms: _17  and  _18
REMARK    8  A    between atoms: _17  and  _20
REMARK    9  A    between atoms: _20  and  _21
REMARK   10  A    between atoms: _26  and  _28
REMARK   11  A    between atoms: _28  and  _29
REMARK   12  A    between atoms: _28  and  _31
REMARK   13  A    between atoms: _31  and  _32
REMARK   14  A    between atoms: _36  and  NI_273
REMARK   15  A    between atoms: _37  and  _39
REMARK   16  A    between atoms: _39  and  _40
REMARK   17  A    between atoms: _39  and  _42
REMARK   18  A    between atoms: _42  and  _43
REMARK   19  A    between atoms: _46  and  _48
REMARK   20  A    between atoms: _48  and  _49
REMARK   21  A    between atoms: _48  and  _51
REMARK   22  A    between atoms: _51  and  _52
REMARK   23  A    between atoms: _52  and  _54
REMARK   24  A    between atoms: _54  and  NI_273
REMARK   25  A    between atoms: _55  and  _57
REMARK   26  A    between atoms: _57  and  _58
REMARK   27  A    between atoms: _57  and  _60
REMARK   28  A    between atoms: _60  and  _61
REMARK   29  A    between atoms: _64  and  _66
REMARK   30  A    between atoms: _66  and  _67
REMARK   31  A    between atoms: _66  and  _69
REMARK   32  A    between atoms: _71  and  _73
REMARK   33  A    between atoms: _73  and  _74
REMARK   34  A    between atoms: _73  and  _76
REMARK   35  A    between atoms: _76  and  _77
REMARK   36  A    between atoms: _79  and  _81
REMARK   37  A    between atoms: _81  and  _82
REMARK   38  A    between atoms: _81  and  _84
REMARK   39  A    between atoms: _87  and  _89
REMARK   40  A    between atoms: _89  and  _90
REMARK   41  A    between atoms: _89  and  _92
REMARK   42  A    between atoms: _92  and  _93
REMARK   43  A    between atoms: _96  and  _98
REMARK   44  A    between atoms: _98  and  _99
REMARK   45  A    between atoms: _98  and  _101
REMARK   46  A    between atoms: _101  and  _102
REMARK   47  A    between atoms: _105  and  _107
REMARK   48  A    between atoms: _107  and  _108
REMARK   49  A    between atoms: _107  and  _110
REMARK   50  A    between atoms: _110  and  _111
REMARK   51  A    between atoms: _114  and  _116
REMARK   52  A    between atoms: _116  and  _117
REMARK   53  A    between atoms: _120  and  _122
REMARK   54  A    between atoms: _122  and  _123
REMARK   55  A    between atoms: _122  and  _125
REMARK   56  A    between atoms: _125  and  _126
REMARK   57  A    between atoms: _129  and  _131
REMARK   58  A    between atoms: _131  and  _132
REMARK   59  A    between atoms: _131  and  _134
REMARK   60  A    between atoms: _134  and  _135
REMARK   61  A    between atoms: _140  and  _141
REMARK   62  A    between atoms: _143  and  _145
REMARK   63  A    between atoms: _145  and  _146
REMARK   64  A    between atoms: _145  and  _148
REMARK   65  A    between atoms: _148  and  _149
REMARK   66  A    between atoms: _155  and  _157
REMARK   67  A    between atoms: _157  and  _158
REMARK   68  A    between atoms: _157  and  _160
REMARK   69  A    between atoms: _160  and  _161
REMARK   70  A    between atoms: _161  and  _162
REMARK   71  A    between atoms: _164  and  _166
REMARK   72  A    between atoms: _166  and  _167
REMARK   73  A    between atoms: _166  and  _169
REMARK   74  A    between atoms: _172  and  _174
REMARK   75  A    between atoms: _174  and  _175
REMARK   76  A    between atoms: _177  and  _179
REMARK   77  A    between atoms: _179  and  _180
REMARK   78  A    between atoms: _179  and  _182
REMARK   79  A    between atoms: _182  and  _183
REMARK   80  A    between atoms: _183  and  _184
REMARK   81  A    between atoms: _189  and  _191
REMARK   82  A    between atoms: _191  and  _192
REMARK   83  A    between atoms: _191  and  _194
REMARK   84  A    between atoms: _194  and  _195
REMARK   85  A    between atoms: _198  and  _200
REMARK   86  A    between atoms: _200  and  _201
REMARK   87  A    between atoms: _203  and  _205
REMARK   88  A    between atoms: _205  and  _206
REMARK   89  A    between atoms: _205  and  _208
REMARK   90  A    between atoms: _208  and  _209
REMARK   91  A    between atoms: _215  and  _217
REMARK   92  A    between atoms: _217  and  _218
REMARK   93  A    between atoms: _217  and  _220
REMARK   94  A    between atoms: _220  and  _221
REMARK   95  A    between atoms: _226  and  _227
REMARK   96  A    between atoms: _229  and  _231
REMARK   97  A    between atoms: _231  and  _232
REMARK   98  A    between atoms: _231  and  _234
REMARK   99  A    between atoms: _237  and  _239
REMARK  100  A    between atoms: _239  and  _240
REMARK  101  A    between atoms: _243  and  _245
REMARK  102  A    between atoms: _245  and  _246
REMARK  103  A    between atoms: _245  and  _248
REMARK  104  A    between atoms: _248  and  _249
REMARK  105  A    between atoms: _254  and  _255
REMARK  106  A    between atoms: _257  and  _259
REMARK  107  A    between atoms: _259  and  _260
REMARK  108  A    between atoms: _259  and  _262
REMARK  109  A    between atoms: _262  and  _263
REMARK                            x       y       z     vdW  Elec       q    Type
REMARK                         _______ _______ _______ _____ _____    ______ ____
ROOT
ATOM      1  O   HOH     1      10.866 -27.887 -34.887  0.00  0.00    +0.000 OA
ENDROOT
TORSDOF 0
REMARK  Name = ../refined-set-2016/4mrz/4mrz_pocket.pdb
REMARK  109 active torsions:
REMARK  status: ('A' for Active; 'I' for Inactive)
REMARK    1  A    between atoms: _1  and  _3
REMARK    2  A    between atoms: _3  and  _4
REMARK    3  A    between atoms: _3  and  _6
REMARK    4  A    between atoms: _6  and  _7
REMARK    5  A    between atoms: _12  and  _13
REMARK    6  A    between atoms: _15  and  _17
REMARK    7  A    between atoms: _17  and  _18
REMARK    8  A    between atoms: _17  and  _20
REMARK    9  A    between atoms: _20  and  _21
REMARK   10  A    between atoms: _26  and  _28
REMARK   11  A    between atoms: _28  and  _29
REMARK   12  A    between atoms: _28  and  _31
REMARK   13  A    between atoms: _31  and  _32
REMARK   14  A    between atoms: _36  and  NI_273
REMARK   15  A    between atoms: _37  and  _39
REMARK   16  A    between atoms: _39  and  _40
REMARK   17  A    between atoms: _39  and  _42
REMARK   18  A    between atoms: _42  and  _43
REMARK   19  A    between atoms: _46  and  _48
REMARK   20  A    between atoms: _48  and  _49
REMARK   21  A    between atoms: _48  and  _51
REMARK   22  A    between atoms: _51  and  _52
REMARK   23  A    between atoms: _52  and  _54
REMARK   24  A    between atoms: _54  and  NI_273
REMARK   25  A    between atoms: _55  and  _57
REMARK   26  A    between atoms: _57  and  _58
REMARK   27  A    between atoms: _57  and  _60
REMARK   28  A    between atoms: _60  and  _61
REMARK   29  A    between atoms: _64  and  _66
REMARK   30  A    between atoms: _66  and  _67
REMARK   31  A    between atoms: _66  and  _69
REMARK   32  A    between atoms: _71  and  _73
REMARK   33  A    between atoms: _73  and  _74
REMARK   34  A    between atoms: _73  and  _76
REMARK   35  A    between atoms: _76  and  _77
REMARK   36  A    between atoms: _79  and  _81
REMARK   37  A    between atoms: _81  and  _82
REMARK   38  A    between atoms: _81  and  _84
REMARK   39  A    between atoms: _87  and  _89
REMARK   40  A    between atoms: _89  and  _90
REMARK   41  A    between atoms: _89  and  _92
REMARK   42  A    between atoms: _92  and  _93
REMARK   43  A    between atoms: _96  and  _98
REMARK   44  A    between atoms: _98  and  _99
REMARK   45  A    between atoms: _98  and  _101
REMARK   46  A    between atoms: _101  and  _102
REMARK   47  A    between atoms: _105  and  _107
REMARK   48  A    between atoms: _107  and  _108
REMARK   49  A    between atoms: _107  and  _110
REMARK   50  A    between atoms: _110  and  _111
REMARK   51  A    between atoms: _114  and  _116
REMARK   52  A    between atoms: _116  and  _117
REMARK   53  A    between atoms: _120  and  _122
REMARK   54  A    between atoms: _122  and  _123
REMARK   55  A    between atoms: _122  and  _125
REMARK   56  A    between atoms: _125  and  _126
REMARK   57  A    between atoms: _129  and  _131
REMARK   58  A    between atoms: _131  and  _132
REMARK   59  A    between atoms: _131  and  _134
REMARK   60  A    between atoms: _134  and  _135
REMARK   61  A    between atoms: _140  and  _141
REMARK   62  A    between atoms: _143  and  _145
REMARK   63  A    between atoms: _145  and  _146
REMARK   64  A    between atoms: _145  and  _148
REMARK   65  A    between atoms: _148  and  _149
REMARK   66  A    between atoms: _155  and  _157
REMARK   67  A    between atoms: _157  and  _158
REMARK   68  A    between atoms: _157  and  _160
REMARK   69  A    between atoms: _160  and  _161
REMARK   70  A    between atoms: _161  and  _162
REMARK   71  A    between atoms: _164  and  _166
REMARK   72  A    between atoms: _166  and  _167
REMARK   73  A    between atoms: _166  and  _169
REMARK   74  A    between atoms: _172  and  _174
REMARK   75  A    between atoms: _174  and  _175
REMARK   76  A    between atoms: _177  and  _179
REMARK   77  A    between atoms: _179  and  _180
REMARK   78  A    between atoms: _179  and  _182
REMARK   79  A    between atoms: _182  and  _183
REMARK   80  A    between atoms: _183  and  _184
REMARK   81  A    between atoms: _189  and  _191
REMARK   82  A    between atoms: _191  and  _192
REMARK   83  A    between atoms: _191  and  _194
REMARK   84  A    between atoms: _194  and  _195
REMARK   85  A    between atoms: _198  and  _200
REMARK   86  A    between atoms: _200  and  _201
REMARK   87  A    between atoms: _203  and  _205
REMARK   88  A    between atoms: _205  and  _206
REMARK   89  A    between atoms: _205  and  _208
REMARK   90  A    between atoms: _208  and  _209
REMARK   91  A    between atoms: _215  and  _217
REMARK   92  A    between atoms: _217  and  _218
REMARK   93  A    between atoms: _217  and  _220
REMARK   94  A    between atoms: _220  and  _221
REMARK   95  A    between atoms: _226  and  _227
REMARK   96  A    between atoms: _229  and  _231
REMARK   97  A    between atoms: _231  and  _232
REMARK   98  A    between atoms: _231  and  _234
REMARK   99  A    between atoms: _237  and  _239
REMARK  100  A    between atoms: _239  and  _240
REMARK  101  A    between atoms: _243  and  _245
REMARK  102  A    between atoms: _245  and  _246
REMARK  103  A    between atoms: _245  and  _248
REMARK  104  A    between atoms: _248  and  _249
REMARK  105  A    between atoms: _254  and  _255
REMARK  106  A    between atoms: _257  and  _259
REMARK  107  A    between atoms: _259  and  _260
REMARK  108  A    between atoms: _259  and  _262
REMARK  109  A    between atoms: _262  and  _263
REMARK                            x       y       z     vdW  Elec       q    Type
REMARK                         _______ _______ _______ _____ _____    ______ ____
ROOT
ATOM      1  O   HOH     1      11.310 -32.105 -37.410  0.00  0.00    +0.000 OA
ENDROOT
TORSDOF 0
REMARK  Name = ../refined-set-2016/4mrz/4mrz_pocket.pdb
REMARK  109 active torsions:
REMARK  status: ('A' for Active; 'I' for Inactive)
REMARK    1  A    between atoms: _1  and  _3
REMARK    2  A    between atoms: _3  and  _4
REMARK    3  A    between atoms: _3  and  _6
REMARK    4  A    between atoms: _6  and  _7
REMARK    5  A    between atoms: _12  and  _13
REMARK    6  A    between atoms: _15  and  _17
REMARK    7  A    between atoms: _17  and  _18
REMARK    8  A    between atoms: _17  and  _20
REMARK    9  A    between atoms: _20  and  _21
REMARK   10  A    between atoms: _26  and  _28
REMARK   11  A    between atoms: _28  and  _29
REMARK   12  A    between atoms: _28  and  _31
REMARK   13  A    between atoms: _31  and  _32
REMARK   14  A    between atoms: _36  and  NI_273
REMARK   15  A    between atoms: _37  and  _39
REMARK   16  A    between atoms: _39  and  _40
REMARK   17  A    between atoms: _39  and  _42
REMARK   18  A    between atoms: _42  and  _43
REMARK   19  A    between atoms: _46  and  _48
REMARK   20  A    between atoms: _48  and  _49
REMARK   21  A    between atoms: _48  and  _51
REMARK   22  A    between atoms: _51  and  _52
REMARK   23  A    between atoms: _52  and  _54
REMARK   24  A    between atoms: _54  and  NI_273
REMARK   25  A    between atoms: _55  and  _57
REMARK   26  A    between atoms: _57  and  _58
REMARK   27  A    between atoms: _57  and  _60
REMARK   28  A    between atoms: _60  and  _61
REMARK   29  A    between atoms: _64  and  _66
REMARK   30  A    between atoms: _66  and  _67
REMARK   31  A    between atoms: _66  and  _69
REMARK   32  A    between atoms: _71  and  _73
REMARK   33  A    between atoms: _73  and  _74
REMARK   34  A    between atoms: _73  and  _76
REMARK   35  A    between atoms: _76  and  _77
REMARK   36  A    between atoms: _79  and  _81
REMARK   37  A    between atoms: _81  and  _82
REMARK   38  A    between atoms: _81  and  _84
REMARK   39  A    between atoms: _87  and  _89
REMARK   40  A    between atoms: _89  and  _90
REMARK   41  A    between atoms: _89  and  _92
REMARK   42  A    between atoms: _92  and  _93
REMARK   43  A    between atoms: _96  and  _98
REMARK   44  A    between atoms: _98  and  _99
REMARK   45  A    between atoms: _98  and  _101
REMARK   46  A    between atoms: _101  and  _102
REMARK   47  A    between atoms: _105  and  _107
REMARK   48  A    between atoms: _107  and  _108
REMARK   49  A    between atoms: _107  and  _110
REMARK   50  A    between atoms: _110  and  _111
REMARK   51  A    between atoms: _114  and  _116
REMARK   52  A    between atoms: _116  and  _117
REMARK   53  A    between atoms: _120  and  _122
REMARK   54  A    between atoms: _122  and  _123
REMARK   55  A    between atoms: _122  and  _125
REMARK   56  A    between atoms: _125  and  _126
REMARK   57  A    between atoms: _129  and  _131
REMARK   58  A    between atoms: _131  and  _132
REMARK   59  A    between atoms: _131  and  _134
REMARK   60  A    between atoms: _134  and  _135
REMARK   61  A    between atoms: _140  and  _141
REMARK   62  A    between atoms: _143  and  _145
REMARK   63  A    between atoms: _145  and  _146
REMARK   64  A    between atoms: _145  and  _148
REMARK   65  A    between atoms: _148  and  _149
REMARK   66  A    between atoms: _155  and  _157
REMARK   67  A    between atoms: _157  and  _158
REMARK   68  A    between atoms: _157  and  _160
REMARK   69  A    between atoms: _160  and  _161
REMARK   70  A    between atoms: _161  and  _162
REMARK   71  A    between atoms: _164  and  _166
REMARK   72  A    between atoms: _166  and  _167
REMARK   73  A    between atoms: _166  and  _169
REMARK   74  A    between atoms: _172  and  _174
REMARK   75  A    between atoms: _174  and  _175
REMARK   76  A    between atoms: _177  and  _179
REMARK   77  A    between atoms: _179  and  _180
REMARK   78  A    between atoms: _179  and  _182
REMARK   79  A    between atoms: _182  and  _183
REMARK   80  A    between atoms: _183  and  _184
REMARK   81  A    between atoms: _189  and  _191
REMARK   82  A    between atoms: _191  and  _192
REMARK   83  A    between atoms: _191  and  _194
REMARK   84  A    between atoms: _194  and  _195
REMARK   85  A    between atoms: _198  and  _200
REMARK   86  A    between atoms: _200  and  _201
REMARK   87  A    between atoms: _203  and  _205
REMARK   88  A    between atoms: _205  and  _206
REMARK   89  A    between atoms: _205  and  _208
REMARK   90  A    between atoms: _208  and  _209
REMARK   91  A    between atoms: _215  and  _217
REMARK   92  A    between atoms: _217  and  _218
REMARK   93  A    between atoms: _217  and  _220
REMARK   94  A    between atoms: _220  and  _221
REMARK   95  A    between atoms: _226  and  _227
REMARK   96  A    between atoms: _229  and  _231
REMARK   97  A    between atoms: _231  and  _232
REMARK   98  A    between atoms: _231  and  _234
REMARK   99  A    between atoms: _237  and  _239
REMARK  100  A    between atoms: _239  and  _240
REMARK  101  A    between atoms: _243  and  _245
REMARK  102  A    between atoms: _245  and  _246
REMARK  103  A    between atoms: _245  and  _248
REMARK  104  A    between atoms: _248  and  _249
REMARK  105  A    between atoms: _254  and  _255
REMARK  106  A    between atoms: _257  and  _259
REMARK  107  A    between atoms: _259  and  _260
REMARK  108  A    between atoms: _259  and  _262
REMARK  109  A    between atoms: _262  and  _263
REMARK                            x       y       z     vdW  Elec       q    Type
REMARK                         _______ _______ _______ _____ _____    ______ ____
ROOT
ATOM      1  O   HOH     1      12.572 -29.758 -36.540  0.00  0.00    +0.000 OA
ENDROOT
TORSDOF 0
REMARK  Name = ../refined-set-2016/4mrz/4mrz_pocket.pdb
REMARK  109 active torsions:
REMARK  status: ('A' for Active; 'I' for Inactive)
REMARK    1  A    between atoms: _1  and  _3
REMARK    2  A    between atoms: _3  and  _4
REMARK    3  A    between atoms: _3  and  _6
REMARK    4  A    between atoms: _6  and  _7
REMARK    5  A    between atoms: _12  and  _13
REMARK    6  A    between atoms: _15  and  _17
REMARK    7  A    between atoms: _17  and  _18
REMARK    8  A    between atoms: _17  and  _20
REMARK    9  A    between atoms: _20  and  _21
REMARK   10  A    between atoms: _26  and  _28
REMARK   11  A    between atoms: _28  and  _29
REMARK   12  A    between atoms: _28  and  _31
REMARK   13  A    between atoms: _31  and  _32
REMARK   14  A    between atoms: _36  and  NI_273
REMARK   15  A    between atoms: _37  and  _39
REMARK   16  A    between atoms: _39  and  _40
REMARK   17  A    between atoms: _39  and  _42
REMARK   18  A    between atoms: _42  and  _43
REMARK   19  A    between atoms: _46  and  _48
REMARK   20  A    between atoms: _48  and  _49
REMARK   21  A    between atoms: _48  and  _51
REMARK   22  A    between atoms: _51  and  _52
REMARK   23  A    between atoms: _52  and  _54
REMARK   24  A    between atoms: _54  and  NI_273
REMARK   25  A    between atoms: _55  and  _57
REMARK   26  A    between atoms: _57  and  _58
REMARK   27  A    between atoms: _57  and  _60
REMARK   28  A    between atoms: _60  and  _61
REMARK   29  A    between atoms: _64  and  _66
REMARK   30  A    between atoms: _66  and  _67
REMARK   31  A    between atoms: _66  and  _69
REMARK   32  A    between atoms: _71  and  _73
REMARK   33  A    between atoms: _73  and  _74
REMARK   34  A    between atoms: _73  and  _76
REMARK   35  A    between atoms: _76  and  _77
REMARK   36  A    between atoms: _79  and  _81
REMARK   37  A    between atoms: _81  and  _82
REMARK   38  A    between atoms: _81  and  _84
REMARK   39  A    between atoms: _87  and  _89
REMARK   40  A    between atoms: _89  and  _90
REMARK   41  A    between atoms: _89  and  _92
REMARK   42  A    between atoms: _92  and  _93
REMARK   43  A    between atoms: _96  and  _98
REMARK   44  A    between atoms: _98  and  _99
REMARK   45  A    between atoms: _98  and  _101
REMARK   46  A    between atoms: _101  and  _102
REMARK   47  A    between atoms: _105  and  _107
REMARK   48  A    between atoms: _107  and  _108
REMARK   49  A    between atoms: _107  and  _110
REMARK   50  A    between atoms: _110  and  _111
REMARK   51  A    between atoms: _114  and  _116
REMARK   52  A    between atoms: _116  and  _117
REMARK   53  A    between atoms: _120  and  _122
REMARK   54  A    between atoms: _122  and  _123
REMARK   55  A    between atoms: _122  and  _125
REMARK   56  A    between atoms: _125  and  _126
REMARK   57  A    between atoms: _129  and  _131
REMARK   58  A    between atoms: _131  and  _132
REMARK   59  A    between atoms: _131  and  _134
REMARK   60  A    between atoms: _134  and  _135
REMARK   61  A    between atoms: _140  and  _141
REMARK   62  A    between atoms: _143  and  _145
REMARK   63  A    between atoms: _145  and  _146
REMARK   64  A    between atoms: _145  and  _148
REMARK   65  A    between atoms: _148  and  _149
REMARK   66  A    between atoms: _155  and  _157
REMARK   67  A    between atoms: _157  and  _158
REMARK   68  A    between atoms: _157  and  _160
REMARK   69  A    between atoms: _160  and  _161
REMARK   70  A    between atoms: _161  and  _162
REMARK   71  A    between atoms: _164  and  _166
REMARK   72  A    between atoms: _166  and  _167
REMARK   73  A    between atoms: _166  and  _169
REMARK   74  A    between atoms: _172  and  _174
REMARK   75  A    between atoms: _174  and  _175
REMARK   76  A    between atoms: _177  and  _179
REMARK   77  A    between atoms: _179  and  _180
REMARK   78  A    between atoms: _179  and  _182
REMARK   79  A    between atoms: _182  and  _183
REMARK   80  A    between atoms: _183  and  _184
REMARK   81  A    between atoms: _189  and  _191
REMARK   82  A    between atoms: _191  and  _192
REMARK   83  A    between atoms: _191  and  _194
REMARK   84  A    between atoms: _194  and  _195
REMARK   85  A    between atoms: _198  and  _200
REMARK   86  A    between atoms: _200  and  _201
REMARK   87  A    between atoms: _203  and  _205
REMARK   88  A    between atoms: _205  and  _206
REMARK   89  A    between atoms: _205  and  _208
REMARK   90  A    between atoms: _208  and  _209
REMARK   91  A    between atoms: _215  and  _217
REMARK   92  A    between atoms: _217  and  _218
REMARK   93  A    between atoms: _217  and  _220
REMARK   94  A    between atoms: _220  and  _221
REMARK   95  A    between atoms: _226  and  _227
REMARK   96  A    between atoms: _229  and  _231
REMARK   97  A    between atoms: _231  and  _232
REMARK   98  A    between atoms: _231  and  _234
REMARK   99  A    between atoms: _237  and  _239
REMARK  100  A    between atoms: _239  and  _240
REMARK  101  A    between atoms: _243  and  _245
REMARK  102  A    between atoms: _245  and  _246
REMARK  103  A    between atoms: _245  and  _248
REMARK  104  A    between atoms: _248  and  _249
REMARK  105  A    between atoms: _254  and  _255
REMARK  106  A    between atoms: _257  and  _259
REMARK  107  A    between atoms: _259  and  _260
REMARK  108  A    between atoms: _259  and  _262
REMARK  109  A    between atoms: _262  and  _263
REMARK                            x       y       z     vdW  Elec       q    Type
REMARK                         _______ _______ _______ _____ _____    ______ ____
ROOT
ATOM      1  O   HOH     1      10.208 -34.704 -33.494  0.00  0.00    +0.000 OA
ENDROOT
TORSDOF 0
REMARK  Name = ../refined-set-2016/4mrz/4mrz_pocket.pdb
REMARK  109 active torsions:
REMARK  status: ('A' for Active; 'I' for Inactive)
REMARK    1  A    between atoms: _1  and  _3
REMARK    2  A    between atoms: _3  and  _4
REMARK    3  A    between atoms: _3  and  _6
REMARK    4  A    between atoms: _6  and  _7
REMARK    5  A    between atoms: _12  and  _13
REMARK    6  A    between atoms: _15  and  _17
REMARK    7  A    between atoms: _17  and  _18
REMARK    8  A    between atoms: _17  and  _20
REMARK    9  A    between atoms: _20  and  _21
REMARK   10  A    between atoms: _26  and  _28
REMARK   11  A    between atoms: _28  and  _29
REMARK   12  A    between atoms: _28  and  _31
REMARK   13  A    between atoms: _31  and  _32
REMARK   14  A    between atoms: _36  and  NI_273
REMARK   15  A    between atoms: _37  and  _39
REMARK   16  A    between atoms: _39  and  _40
REMARK   17  A    between atoms: _39  and  _42
REMARK   18  A    between atoms: _42  and  _43
REMARK   19  A    between atoms: _46  and  _48
REMARK   20  A    between atoms: _48  and  _49
REMARK   21  A    between atoms: _48  and  _51
REMARK   22  A    between atoms: _51  and  _52
REMARK   23  A    between atoms: _52  and  _54
REMARK   24  A    between atoms: _54  and  NI_273
REMARK   25  A    between atoms: _55  and  _57
REMARK   26  A    between atoms: _57  and  _58
REMARK   27  A    between atoms: _57  and  _60
REMARK   28  A    between atoms: _60  and  _61
REMARK   29  A    between atoms: _64  and  _66
REMARK   30  A    between atoms: _66  and  _67
REMARK   31  A    between atoms: _66  and  _69
REMARK   32  A    between atoms: _71  and  _73
REMARK   33  A    between atoms: _73  and  _74
REMARK   34  A    between atoms: _73  and  _76
REMARK   35  A    between atoms: _76  and  _77
REMARK   36  A    between atoms: _79  and  _81
REMARK   37  A    between atoms: _81  and  _82
REMARK   38  A    between atoms: _81  and  _84
REMARK   39  A    between atoms: _87  and  _89
REMARK   40  A    between atoms: _89  and  _90
REMARK   41  A    between atoms: _89  and  _92
REMARK   42  A    between atoms: _92  and  _93
REMARK   43  A    between atoms: _96  and  _98
REMARK   44  A    between atoms: _98  and  _99
REMARK   45  A    between atoms: _98  and  _101
REMARK   46  A    between atoms: _101  and  _102
REMARK   47  A    between atoms: _105  and  _107
REMARK   48  A    between atoms: _107  and  _108
REMARK   49  A    between atoms: _107  and  _110
REMARK   50  A    between atoms: _110  and  _111
REMARK   51  A    between atoms: _114  and  _116
REMARK   52  A    between atoms: _116  and  _117
REMARK   53  A    between atoms: _120  and  _122
REMARK   54  A    between atoms: _122  and  _123
REMARK   55  A    between atoms: _122  and  _125
REMARK   56  A    between atoms: _125  and  _126
REMARK   57  A    between atoms: _129  and  _131
REMARK   58  A    between atoms: _131  and  _132
REMARK   59  A    between atoms: _131  and  _134
REMARK   60  A    between atoms: _134  and  _135
REMARK   61  A    between atoms: _140  and  _141
REMARK   62  A    between atoms: _143  and  _145
REMARK   63  A    between atoms: _145  and  _146
REMARK   64  A    between atoms: _145  and  _148
REMARK   65  A    between atoms: _148  and  _149
REMARK   66  A    between atoms: _155  and  _157
REMARK   67  A    between atoms: _157  and  _158
REMARK   68  A    between atoms: _157  and  _160
REMARK   69  A    between atoms: _160  and  _161
REMARK   70  A    between atoms: _161  and  _162
REMARK   71  A    between atoms: _164  and  _166
REMARK   72  A    between atoms: _166  and  _167
REMARK   73  A    between atoms: _166  and  _169
REMARK   74  A    between atoms: _172  and  _174
REMARK   75  A    between atoms: _174  and  _175
REMARK   76  A    between atoms: _177  and  _179
REMARK   77  A    between atoms: _179  and  _180
REMARK   78  A    between atoms: _179  and  _182
REMARK   79  A    between atoms: _182  and  _183
REMARK   80  A    between atoms: _183  and  _184
REMARK   81  A    between atoms: _189  and  _191
REMARK   82  A    between atoms: _191  and  _192
REMARK   83  A    between atoms: _191  and  _194
REMARK   84  A    between atoms: _194  and  _195
REMARK   85  A    between atoms: _198  and  _200
REMARK   86  A    between atoms: _200  and  _201
REMARK   87  A    between atoms: _203  and  _205
REMARK   88  A    between atoms: _205  and  _206
REMARK   89  A    between atoms: _205  and  _208
REMARK   90  A    between atoms: _208  and  _209
REMARK   91  A    between atoms: _215  and  _217
REMARK   92  A    between atoms: _217  and  _218
REMARK   93  A    between atoms: _217  and  _220
REMARK   94  A    between atoms: _220  and  _221
REMARK   95  A    between atoms: _226  and  _227
REMARK   96  A    between atoms: _229  and  _231
REMARK   97  A    between atoms: _231  and  _232
REMARK   98  A    between atoms: _231  and  _234
REMARK   99  A    between atoms: _237  and  _239
REMARK  100  A    between atoms: _239  and  _240
REMARK  101  A    between atoms: _243  and  _245
REMARK  102  A    between atoms: _245  and  _246
REMARK  103  A    between atoms: _245  and  _248
REMARK  104  A    between atoms: _248  and  _249
REMARK  105  A    between atoms: _254  and  _255
REMARK  106  A    between atoms: _257  and  _259
REMARK  107  A    between atoms: _259  and  _260
REMARK  108  A    between atoms: _259  and  _262
REMARK  109  A    between atoms: _262  and  _263
REMARK                            x       y       z     vdW  Elec       q    Type
REMARK                         _______ _______ _______ _____ _____    ______ ____
ROOT
ATOM      1  O   HOH     1       7.989 -31.703 -36.088  0.00  0.00    +0.000 OA
ENDROOT
TORSDOF 0
REMARK  Name = ../refined-set-2016/4mrz/4mrz_pocket.pdb
REMARK  109 active torsions:
REMARK  status: ('A' for Active; 'I' for Inactive)
REMARK    1  A    between atoms: _1  and  _3
REMARK    2  A    between atoms: _3  and  _4
REMARK    3  A    between atoms: _3  and  _6
REMARK    4  A    between atoms: _6  and  _7
REMARK    5  A    between atoms: _12  and  _13
REMARK    6  A    between atoms: _15  and  _17
REMARK    7  A    between atoms: _17  and  _18
REMARK    8  A    between atoms: _17  and  _20
REMARK    9  A    between atoms: _20  and  _21
REMARK   10  A    between atoms: _26  and  _28
REMARK   11  A    between atoms: _28  and  _29
REMARK   12  A    between atoms: _28  and  _31
REMARK   13  A    between atoms: _31  and  _32
REMARK   14  A    between atoms: _36  and  NI_273
REMARK   15  A    between atoms: _37  and  _39
REMARK   16  A    between atoms: _39  and  _40
REMARK   17  A    between atoms: _39  and  _42
REMARK   18  A    between atoms: _42  and  _43
REMARK   19  A    between atoms: _46  and  _48
REMARK   20  A    between atoms: _48  and  _49
REMARK   21  A    between atoms: _48  and  _51
REMARK   22  A    between atoms: _51  and  _52
REMARK   23  A    between atoms: _52  and  _54
REMARK   24  A    between atoms: _54  and  NI_273
REMARK   25  A    between atoms: _55  and  _57
REMARK   26  A    between atoms: _57  and  _58
REMARK   27  A    between atoms: _57  and  _60
REMARK   28  A    between atoms: _60  and  _61
REMARK   29  A    between atoms: _64  and  _66
REMARK   30  A    between atoms: _66  and  _67
REMARK   31  A    between atoms: _66  and  _69
REMARK   32  A    between atoms: _71  and  _73
REMARK   33  A    between atoms: _73  and  _74
REMARK   34  A    between atoms: _73  and  _76
REMARK   35  A    between atoms: _76  and  _77
REMARK   36  A    between atoms: _79  and  _81
REMARK   37  A    between atoms: _81  and  _82
REMARK   38  A    between atoms: _81  and  _84
REMARK   39  A    between atoms: _87  and  _89
REMARK   40  A    between atoms: _89  and  _90
REMARK   41  A    between atoms: _89  and  _92
REMARK   42  A    between atoms: _92  and  _93
REMARK   43  A    between atoms: _96  and  _98
REMARK   44  A    between atoms: _98  and  _99
REMARK   45  A    between atoms: _98  and  _101
REMARK   46  A    between atoms: _101  and  _102
REMARK   47  A    between atoms: _105  and  _107
REMARK   48  A    between atoms: _107  and  _108
REMARK   49  A    between atoms: _107  and  _110
REMARK   50  A    between atoms: _110  and  _111
REMARK   51  A    between atoms: _114  and  _116
REMARK   52  A    between atoms: _116  and  _117
REMARK   53  A    between atoms: _120  and  _122
REMARK   54  A    between atoms: _122  and  _123
REMARK   55  A    between atoms: _122  and  _125
REMARK   56  A    between atoms: _125  and  _126
REMARK   57  A    between atoms: _129  and  _131
REMARK   58  A    between atoms: _131  and  _132
REMARK   59  A    between atoms: _131  and  _134
REMARK   60  A    between atoms: _134  and  _135
REMARK   61  A    between atoms: _140  and  _141
REMARK   62  A    between atoms: _143  and  _145
REMARK   63  A    between atoms: _145  and  _146
REMARK   64  A    between atoms: _145  and  _148
REMARK   65  A    between atoms: _148  and  _149
REMARK   66  A    between atoms: _155  and  _157
REMARK   67  A    between atoms: _157  and  _158
REMARK   68  A    between atoms: _157  and  _160
REMARK   69  A    between atoms: _160  and  _161
REMARK   70  A    between atoms: _161  and  _162
REMARK   71  A    between atoms: _164  and  _166
REMARK   72  A    between atoms: _166  and  _167
REMARK   73  A    between atoms: _166  and  _169
REMARK   74  A    between atoms: _172  and  _174
REMARK   75  A    between atoms: _174  and  _175
REMARK   76  A    between atoms: _177  and  _179
REMARK   77  A    between atoms: _179  and  _180
REMARK   78  A    between atoms: _179  and  _182
REMARK   79  A    between atoms: _182  and  _183
REMARK   80  A    between atoms: _183  and  _184
REMARK   81  A    between atoms: _189  and  _191
REMARK   82  A    between atoms: _191  and  _192
REMARK   83  A    between atoms: _191  and  _194
REMARK   84  A    between atoms: _194  and  _195
REMARK   85  A    between atoms: _198  and  _200
REMARK   86  A    between atoms: _200  and  _201
REMARK   87  A    between atoms: _203  and  _205
REMARK   88  A    between atoms: _205  and  _206
REMARK   89  A    between atoms: _205  and  _208
REMARK   90  A    between atoms: _208  and  _209
REMARK   91  A    between atoms: _215  and  _217
REMARK   92  A    between atoms: _217  and  _218
REMARK   93  A    between atoms: _217  and  _220
REMARK   94  A    between atoms: _220  and  _221
REMARK   95  A    between atoms: _226  and  _227
REMARK   96  A    between atoms: _229  and  _231
REMARK   97  A    between atoms: _231  and  _232
REMARK   98  A    between atoms: _231  and  _234
REMARK   99  A    between atoms: _237  and  _239
REMARK  100  A    between atoms: _239  and  _240
REMARK  101  A    between atoms: _243  and  _245
REMARK  102  A    between atoms: _245  and  _246
REMARK  103  A    between atoms: _245  and  _248
REMARK  104  A    between atoms: _248  and  _249
REMARK  105  A    between atoms: _254  and  _255
REMARK  106  A    between atoms: _257  and  _259
REMARK  107  A    between atoms: _259  and  _260
REMARK  108  A    between atoms: _259  and  _262
REMARK  109  A    between atoms: _262  and  _263
REMARK                            x       y       z     vdW  Elec       q    Type
REMARK                         _______ _______ _______ _____ _____    ______ ____
ROOT
ATOM      1  O   HOH     1       2.142 -23.156 -42.532  0.00  0.00    +0.000 OA
ENDROOT
TORSDOF 0
REMARK  Name = ../refined-set-2016/4mrz/4mrz_pocket.pdb
REMARK  109 active torsions:
REMARK  status: ('A' for Active; 'I' for Inactive)
REMARK    1  A    between atoms: _1  and  _3
REMARK    2  A    between atoms: _3  and  _4
REMARK    3  A    between atoms: _3  and  _6
REMARK    4  A    between atoms: _6  and  _7
REMARK    5  A    between atoms: _12  and  _13
REMARK    6  A    between atoms: _15  and  _17
REMARK    7  A    between atoms: _17  and  _18
REMARK    8  A    between atoms: _17  and  _20
REMARK    9  A    between atoms: _20  and  _21
REMARK   10  A    between atoms: _26  and  _28
REMARK   11  A    between atoms: _28  and  _29
REMARK   12  A    between atoms: _28  and  _31
REMARK   13  A    between atoms: _31  and  _32
REMARK   14  A    between atoms: _36  and  NI_273
REMARK   15  A    between atoms: _37  and  _39
REMARK   16  A    between atoms: _39  and  _40
REMARK   17  A    between atoms: _39  and  _42
REMARK   18  A    between atoms: _42  and  _43
REMARK   19  A    between atoms: _46  and  _48
REMARK   20  A    between atoms: _48  and  _49
REMARK   21  A    between atoms: _48  and  _51
REMARK   22  A    between atoms: _51  and  _52
REMARK   23  A    between atoms: _52  and  _54
REMARK   24  A    between atoms: _54  and  NI_273
REMARK   25  A    between atoms: _55  and  _57
REMARK   26  A    between atoms: _57  and  _58
REMARK   27  A    between atoms: _57  and  _60
REMARK   28  A    between atoms: _60  and  _61
REMARK   29  A    between atoms: _64  and  _66
REMARK   30  A    between atoms: _66  and  _67
REMARK   31  A    between atoms: _66  and  _69
REMARK   32  A    between atoms: _71  and  _73
REMARK   33  A    between atoms: _73  and  _74
REMARK   34  A    between atoms: _73  and  _76
REMARK   35  A    between atoms: _76  and  _77
REMARK   36  A    between atoms: _79  and  _81
REMARK   37  A    between atoms: _81  and  _82
REMARK   38  A    between atoms: _81  and  _84
REMARK   39  A    between atoms: _87  and  _89
REMARK   40  A    between atoms: _89  and  _90
REMARK   41  A    between atoms: _89  and  _92
REMARK   42  A    between atoms: _92  and  _93
REMARK   43  A    between atoms: _96  and  _98
REMARK   44  A    between atoms: _98  and  _99
REMARK   45  A    between atoms: _98  and  _101
REMARK   46  A    between atoms: _101  and  _102
REMARK   47  A    between atoms: _105  and  _107
REMARK   48  A    between atoms: _107  and  _108
REMARK   49  A    between atoms: _107  and  _110
REMARK   50  A    between atoms: _110  and  _111
REMARK   51  A    between atoms: _114  and  _116
REMARK   52  A    between atoms: _116  and  _117
REMARK   53  A    between atoms: _120  and  _122
REMARK   54  A    between atoms: _122  and  _123
REMARK   55  A    between atoms: _122  and  _125
REMARK   56  A    between atoms: _125  and  _126
REMARK   57  A    between atoms: _129  and  _131
REMARK   58  A    between atoms: _131  and  _132
REMARK   59  A    between atoms: _131  and  _134
REMARK   60  A    between atoms: _134  and  _135
REMARK   61  A    between atoms: _140  and  _141
REMARK   62  A    between atoms: _143  and  _145
REMARK   63  A    between atoms: _145  and  _146
REMARK   64  A    between atoms: _145  and  _148
REMARK   65  A    between atoms: _148  and  _149
REMARK   66  A    between atoms: _155  and  _157
REMARK   67  A    between atoms: _157  and  _158
REMARK   68  A    between atoms: _157  and  _160
REMARK   69  A    between atoms: _160  and  _161
REMARK   70  A    between atoms: _161  and  _162
REMARK   71  A    between atoms: _164  and  _166
REMARK   72  A    between atoms: _166  and  _167
REMARK   73  A    between atoms: _166  and  _169
REMARK   74  A    between atoms: _172  and  _174
REMARK   75  A    between atoms: _174  and  _175
REMARK   76  A    between atoms: _177  and  _179
REMARK   77  A    between atoms: _179  and  _180
REMARK   78  A    between atoms: _179  and  _182
REMARK   79  A    between atoms: _182  and  _183
REMARK   80  A    between atoms: _183  and  _184
REMARK   81  A    between atoms: _189  and  _191
REMARK   82  A    between atoms: _191  and  _192
REMARK   83  A    between atoms: _191  and  _194
REMARK   84  A    between atoms: _194  and  _195
REMARK   85  A    between atoms: _198  and  _200
REMARK   86  A    between atoms: _200  and  _201
REMARK   87  A    between atoms: _203  and  _205
REMARK   88  A    between atoms: _205  and  _206
REMARK   89  A    between atoms: _205  and  _208
REMARK   90  A    between atoms: _208  and  _209
REMARK   91  A    between atoms: _215  and  _217
REMARK   92  A    between atoms: _217  and  _218
REMARK   93  A    between atoms: _217  and  _220
REMARK   94  A    between atoms: _220  and  _221
REMARK   95  A    between atoms: _226  and  _227
REMARK   96  A    between atoms: _229  and  _231
REMARK   97  A    between atoms: _231  and  _232
REMARK   98  A    between atoms: _231  and  _234
REMARK   99  A    between atoms: _237  and  _239
REMARK  100  A    between atoms: _239  and  _240
REMARK  101  A    between atoms: _243  and  _245
REMARK  102  A    between atoms: _245  and  _246
REMARK  103  A    between atoms: _245  and  _248
REMARK  104  A    between atoms: _248  and  _249
REMARK  105  A    between atoms: _254  and  _255
REMARK  106  A    between atoms: _257  and  _259
REMARK  107  A    between atoms: _259  and  _260
REMARK  108  A    between atoms: _259  and  _262
REMARK  109  A    between atoms: _262  and  _263
REMARK                            x       y       z     vdW  Elec       q    Type
REMARK                         _______ _______ _______ _____ _____    ______ ____
ROOT
ATOM      1  O   HOH     1       4.996 -28.852 -29.325  0.00  0.00    +0.000 OA
ENDROOT
TORSDOF 0
