REMARK  Name = ../refined-set-2016/4a4q/4a4q_pocket.pdb
REMARK  241 active torsions:
REMARK  status: ('A' for Active; 'I' for Inactive)
REMARK    1  A    between atoms: _1  and  _3
REMARK    2  A    between atoms: _3  and  _4
REMARK    3  A    between atoms: _3  and  _6
REMARK    4  A    between atoms: _6  and  _7
REMARK    5  A    between atoms: _7  and  _8
REMARK    6  A    between atoms: _8  and  _9
REMARK    7  A    between atoms: _18  and  _20
REMARK    8  A    between atoms: _20  and  _21
REMARK    9  A    between atoms: _20  and  _23
REMARK   10  A    between atoms: _23  and  _24
REMARK   11  A    between atoms: _27  and  _29
REMARK   12  A    between atoms: _29  and  _30
REMARK   13  A    between atoms: _29  and  _32
REMARK   14  A    between atoms: _32  and  _33
REMARK   15  A    between atoms: _36  and  _38
REMARK   16  A    between atoms: _38  and  _39
REMARK   17  A    between atoms: _38  and  _41
REMARK   18  A    between atoms: _41  and  _42
REMARK   19  A    between atoms: _45  and  _47
REMARK   20  A    between atoms: _47  and  _48
REMARK   21  A    between atoms: _47  and  _50
REMARK   22  A    between atoms: _50  and  _51
REMARK   23  A    between atoms: _54  and  _56
REMARK   24  A    between atoms: _56  and  _57
REMARK   25  A    between atoms: _59  and  _61
REMARK   26  A    between atoms: _61  and  _62
REMARK   27  A    between atoms: _65  and  _67
REMARK   28  A    between atoms: _67  and  _68
REMARK   29  A    between atoms: _67  and  _70
REMARK   30  A    between atoms: _70  and  _71
REMARK   31  A    between atoms: _74  and  _76
REMARK   32  A    between atoms: _76  and  _77
REMARK   33  A    between atoms: _76  and  _79
REMARK   34  A    between atoms: _79  and  _80
REMARK   35  A    between atoms: _83  and  _85
REMARK   36  A    between atoms: _85  and  _86
REMARK   37  A    between atoms: _85  and  _88
REMARK   38  A    between atoms: _88  and  _89
REMARK   39  A    between atoms: _92  and  _94
REMARK   40  A    between atoms: _94  and  _95
REMARK   41  A    between atoms: _94  and  _97
REMARK   42  A    between atoms: _100  and  _102
REMARK   43  A    between atoms: _102  and  _103
REMARK   44  A    between atoms: _102  and  _105
REMARK   45  A    between atoms: _105  and  _106
REMARK   46  A    between atoms: _109  and  _111
REMARK   47  A    between atoms: _111  and  _112
REMARK   48  A    between atoms: _111  and  _114
REMARK   49  A    between atoms: _114  and  _115
REMARK   50  A    between atoms: _115  and  _116
REMARK   51  A    between atoms: _119  and  _121
REMARK   52  A    between atoms: _121  and  _122
REMARK   53  A    between atoms: _121  and  _124
REMARK   54  A    between atoms: _124  and  _125
REMARK   55  A    between atoms: _125  and  _126
REMARK   56  A    between atoms: _126  and  _127
REMARK   57  A    between atoms: _127  and  _128
REMARK   58  A    between atoms: _132  and  _134
REMARK   59  A    between atoms: _134  and  _135
REMARK   60  A    between atoms: _134  and  _137
REMARK   61  A    between atoms: _137  and  _138
REMARK   62  A    between atoms: _138  and  _139
REMARK   63  A    between atoms: _141  and  _143
REMARK   64  A    between atoms: _143  and  _144
REMARK   65  A    between atoms: _143  and  _146
REMARK   66  A    between atoms: _146  and  _147
REMARK   67  A    between atoms: _150  and  _152
REMARK   68  A    between atoms: _152  and  _153
REMARK   69  A    between atoms: _155  and  _157
REMARK   70  A    between atoms: _157  and  _158
REMARK   71  A    between atoms: _160  and  _162
REMARK   72  A    between atoms: _162  and  _163
REMARK   73  A    between atoms: _162  and  _165
REMARK   74  A    between atoms: _165  and  _166
REMARK   75  A    between atoms: _169  and  _171
REMARK   76  A    between atoms: _171  and  _172
REMARK   77  A    between atoms: _174  and  _176
REMARK   78  A    between atoms: _176  and  _177
REMARK   79  A    between atoms: _179  and  _181
REMARK   80  A    between atoms: _181  and  _182
REMARK   81  A    between atoms: _181  and  _184
REMARK   82  A    between atoms: _184  and  _185
REMARK   83  A    between atoms: _191  and  _193
REMARK   84  A    between atoms: _193  and  _194
REMARK   85  A    between atoms: _193  and  _196
REMARK   86  A    between atoms: _196  and  _197
REMARK   87  A    between atoms: _200  and  _202
REMARK   88  A    between atoms: _202  and  _203
REMARK   89  A    between atoms: _202  and  _205
REMARK   90  A    between atoms: _208  and  _210
REMARK   91  A    between atoms: _210  and  _211
REMARK   92  A    between atoms: _210  and  _213
REMARK   93  A    between atoms: _213  and  _214
REMARK   94  A    between atoms: _217  and  _219
REMARK   95  A    between atoms: _219  and  _220
REMARK   96  A    between atoms: _219  and  _222
REMARK   97  A    between atoms: _222  and  _223
REMARK   98  A    between atoms: _227  and  _228
REMARK   99  A    between atoms: _233  and  _235
REMARK  100  A    between atoms: _235  and  _236
REMARK  101  A    between atoms: _235  and  _238
REMARK  102  A    between atoms: _238  and  _239
REMARK  103  A    between atoms: _242  and  _244
REMARK  104  A    between atoms: _244  and  _245
REMARK  105  A    between atoms: _244  and  _247
REMARK  106  A    between atoms: _247  and  _248
REMARK  107  A    between atoms: _253  and  _255
REMARK  108  A    between atoms: _255  and  _256
REMARK  109  A    between atoms: _255  and  _258
REMARK  110  A    between atoms: _261  and  _263
REMARK  111  A    between atoms: _263  and  _264
REMARK  112  A    between atoms: _263  and  _266
REMARK  113  A    between atoms: _266  and  _267
REMARK  114  A    between atoms: _270  and  _272
REMARK  115  A    between atoms: _272  and  _273
REMARK  116  A    between atoms: _275  and  _277
REMARK  117  A    between atoms: _277  and  _278
REMARK  118  A    between atoms: _277  and  _280
REMARK  119  A    between atoms: _280  and  _281
REMARK  120  A    between atoms: _281  and  _282
REMARK  121  A    between atoms: _282  and  _283
REMARK  122  A    between atoms: _292  and  _294
REMARK  123  A    between atoms: _294  and  _295
REMARK  124  A    between atoms: _294  and  _297
REMARK  125  A    between atoms: _297  and  _298
REMARK  126  A    between atoms: _303  and  _305
REMARK  127  A    between atoms: _305  and  _306
REMARK  128  A    between atoms: _305  and  _308
REMARK  129  A    between atoms: _308  and  _309
REMARK  130  A    between atoms: _309  and  _310
REMARK  131  A    between atoms: _310  and  _311
REMARK  132  A    between atoms: _320  and  _322
REMARK  133  A    between atoms: _322  and  _323
REMARK  134  A    between atoms: _322  and  _325
REMARK  135  A    between atoms: _325  and  _326
REMARK  136  A    between atoms: _329  and  _331
REMARK  137  A    between atoms: _331  and  _332
REMARK  138  A    between atoms: _331  and  _334
REMARK  139  A    between atoms: _334  and  _335
REMARK  140  A    between atoms: _338  and  _340
REMARK  141  A    between atoms: _340  and  _341
REMARK  142  A    between atoms: _340  and  _343
REMARK  143  A    between atoms: _343  and  _344
REMARK  144  A    between atoms: _347  and  _349
REMARK  145  A    between atoms: _349  and  _350
REMARK  146  A    between atoms: _349  and  _352
REMARK  147  A    between atoms: _352  and  _353
REMARK  148  A    between atoms: _356  and  _358
REMARK  149  A    between atoms: _358  and  _359
REMARK  150  A    between atoms: _358  and  _361
REMARK  151  A    between atoms: _361  and  _362
REMARK  152  A    between atoms: _365  and  _367
REMARK  153  A    between atoms: _367  and  _368
REMARK  154  A    between atoms: _370  and  _372
REMARK  155  A    between atoms: _372  and  _373
REMARK  156  A    between atoms: _376  and  _378
REMARK  157  A    between atoms: _378  and  _379
REMARK  158  A    between atoms: _378  and  _381
REMARK  159  A    between atoms: _381  and  _382
REMARK  160  A    between atoms: _385  and  _387
REMARK  161  A    between atoms: _387  and  _388
REMARK  162  A    between atoms: _387  and  _390
REMARK  163  A    between atoms: _390  and  _391
REMARK  164  A    between atoms: _394  and  _396
REMARK  165  A    between atoms: _396  and  _397
REMARK  166  A    between atoms: _396  and  _399
REMARK  167  A    between atoms: _399  and  _400
REMARK  168  A    between atoms: _403  and  _405
REMARK  169  A    between atoms: _405  and  _406
REMARK  170  A    between atoms: _405  and  _408
REMARK  171  A    between atoms: _411  and  _413
REMARK  172  A    between atoms: _413  and  _414
REMARK  173  A    between atoms: _413  and  _416
REMARK  174  A    between atoms: _416  and  _417
REMARK  175  A    between atoms: _417  and  _418
REMARK  176  A    between atoms: _418  and  _419
REMARK  177  A    between atoms: _419  and  _420
REMARK  178  A    between atoms: _424  and  _426
REMARK  179  A    between atoms: _426  and  _427
REMARK  180  A    between atoms: _426  and  _429
REMARK  181  A    between atoms: _429  and  _430
REMARK  182  A    between atoms: _430  and  _431
REMARK  183  A    between atoms: _433  and  _435
REMARK  184  A    between atoms: _435  and  _436
REMARK  185  A    between atoms: _435  and  _438
REMARK  186  A    between atoms: _438  and  _439
REMARK  187  A    between atoms: _442  and  _444
REMARK  188  A    between atoms: _444  and  _445
REMARK  189  A    between atoms: _447  and  _449
REMARK  190  A    between atoms: _449  and  _450
REMARK  191  A    between atoms: _452  and  _454
REMARK  192  A    between atoms: _454  and  _455
REMARK  193  A    between atoms: _454  and  _457
REMARK  194  A    between atoms: _457  and  _458
REMARK  195  A    between atoms: _461  and  _463
REMARK  196  A    between atoms: _463  and  _464
REMARK  197  A    between atoms: _466  and  _468
REMARK  198  A    between atoms: _468  and  _469
REMARK  199  A    between atoms: _471  and  _473
REMARK  200  A    between atoms: _473  and  _474
REMARK  201  A    between atoms: _473  and  _476
REMARK  202  A    between atoms: _476  and  _477
REMARK  203  A    between atoms: _483  and  _485
REMARK  204  A    between atoms: _485  and  _486
REMARK  205  A    between atoms: _485  and  _488
REMARK  206  A    between atoms: _488  and  _489
REMARK  207  A    between atoms: _492  and  _494
REMARK  208  A    between atoms: _494  and  _495
REMARK  209  A    between atoms: _494  and  _497
REMARK  210  A    between atoms: _500  and  _502
REMARK  211  A    between atoms: _502  and  _503
REMARK  212  A    between atoms: _502  and  _505
REMARK  213  A    between atoms: _505  and  _506
REMARK  214  A    between atoms: _509  and  _511
REMARK  215  A    between atoms: _511  and  _512
REMARK  216  A    between atoms: _511  and  _514
REMARK  217  A    between atoms: _514  and  _515
REMARK  218  A    between atoms: _519  and  _520
REMARK  219  A    between atoms: _525  and  _527
REMARK  220  A    between atoms: _527  and  _528
REMARK  221  A    between atoms: _527  and  _530
REMARK  222  A    between atoms: _530  and  _531
REMARK  223  A    between atoms: _534  and  _536
REMARK  224  A    between atoms: _536  and  _537
REMARK  225  A    between atoms: _536  and  _539
REMARK  226  A    between atoms: _539  and  _540
REMARK  227  A    between atoms: _545  and  _547
REMARK  228  A    between atoms: _547  and  _548
REMARK  229  A    between atoms: _547  and  _550
REMARK  230  A    between atoms: _553  and  _555
REMARK  231  A    between atoms: _555  and  _556
REMARK  232  A    between atoms: _555  and  _558
REMARK  233  A    between atoms: _558  and  _559
REMARK  234  A    between atoms: _562  and  _564
REMARK  235  A    between atoms: _564  and  _565
REMARK  236  A    between atoms: _567  and  _569
REMARK  237  A    between atoms: _569  and  _570
REMARK  238  A    between atoms: _569  and  _572
REMARK  239  A    between atoms: _572  and  _573
REMARK  240  A    between atoms: _573  and  _574
REMARK  241  A    between atoms: _574  and  _575
REMARK                            x       y       z     vdW  Elec       q    Type
REMARK                         _______ _______ _______ _____ _____    ______ ____
ROOT
ATOM      1  NE  ARG A   1      23.700  20.343   7.573  0.00  0.00    -0.265 N 
ATOM      2  CZ  ARG A   1      23.620  19.285   8.372  0.00  0.00    +0.342 C 
ATOM      3  NH2 ARG A   1      23.887  19.407   9.665  0.00  0.00    -0.292 N 
ATOM      4 HH21 ARG A   1      23.824  18.578  10.289  0.00  0.00    +0.255 HD
ATOM      5 HH22 ARG A   1      24.159  20.332  10.055  0.00  0.00    +0.255 HD
ATOM      6  NH1 ARG A   1      23.282  18.103   7.877  0.00  0.00    -0.292 N 
ATOM      7 HH11 ARG A   1      23.220  17.275   8.504  0.00  0.00    +0.255 HD
ATOM      8 HH12 ARG A   1      23.079  18.003   6.862  0.00  0.00    +0.255 HD
ATOM      9  HE  ARG A   1      23.483  20.208   6.565  0.00  0.00    +0.259 HD
ENDROOT
BRANCH   1  10
ATOM     10  CD  ARG A   1      24.073  21.684   8.016  0.00  0.00    +0.174 C 
BRANCH  10  11
ATOM     11  CG  ARG A   1      24.364  22.598   6.830  0.00  0.00    +0.045 C 
BRANCH  11  12
ATOM     12  CB  ARG A   1      24.807  23.974   7.281  0.00  0.00    +0.029 C 
BRANCH  12  13
ATOM     13  CA  ARG A   1      25.395  24.834   6.161  0.00  0.00    +0.133 C 
BRANCH  13  14
ATOM     14  N   ARG A   1      26.660  24.277   5.693  0.00  0.00    -0.239 NA
ATOM     15  H   ARG A   1      27.047  23.424   6.145  0.00  0.00    +0.142 HD
ENDBRANCH  13  14
BRANCH  13  16
ATOM     16  C   ARG A   1      25.668  26.237   6.677  0.00  0.00    +0.224 C 
ATOM     17  O   ARG A   1      26.645  26.462   7.394  0.00  0.00    -0.287 OA
ENDBRANCH  13  16
ENDBRANCH  12  13
ENDBRANCH  11  12
ENDBRANCH  10  11
ENDBRANCH   1  10
TORSDOF 6
REMARK  Name = ../refined-set-2016/4a4q/4a4q_pocket.pdb
REMARK  241 active torsions:
REMARK  status: ('A' for Active; 'I' for Inactive)
REMARK    1  A    between atoms: _1  and  _3
REMARK    2  A    between atoms: _3  and  _4
REMARK    3  A    between atoms: _3  and  _6
REMARK    4  A    between atoms: _6  and  _7
REMARK    5  A    between atoms: _7  and  _8
REMARK    6  A    between atoms: _8  and  _9
REMARK    7  A    between atoms: _18  and  _20
REMARK    8  A    between atoms: _20  and  _21
REMARK    9  A    between atoms: _20  and  _23
REMARK   10  A    between atoms: _23  and  _24
REMARK   11  A    between atoms: _27  and  _29
REMARK   12  A    between atoms: _29  and  _30
REMARK   13  A    between atoms: _29  and  _32
REMARK   14  A    between atoms: _32  and  _33
REMARK   15  A    between atoms: _36  and  _38
REMARK   16  A    between atoms: _38  and  _39
REMARK   17  A    between atoms: _38  and  _41
REMARK   18  A    between atoms: _41  and  _42
REMARK   19  A    between atoms: _45  and  _47
REMARK   20  A    between atoms: _47  and  _48
REMARK   21  A    between atoms: _47  and  _50
REMARK   22  A    between atoms: _50  and  _51
REMARK   23  A    between atoms: _54  and  _56
REMARK   24  A    between atoms: _56  and  _57
REMARK   25  A    between atoms: _59  and  _61
REMARK   26  A    between atoms: _61  and  _62
REMARK   27  A    between atoms: _65  and  _67
REMARK   28  A    between atoms: _67  and  _68
REMARK   29  A    between atoms: _67  and  _70
REMARK   30  A    between atoms: _70  and  _71
REMARK   31  A    between atoms: _74  and  _76
REMARK   32  A    between atoms: _76  and  _77
REMARK   33  A    between atoms: _76  and  _79
REMARK   34  A    between atoms: _79  and  _80
REMARK   35  A    between atoms: _83  and  _85
REMARK   36  A    between atoms: _85  and  _86
REMARK   37  A    between atoms: _85  and  _88
REMARK   38  A    between atoms: _88  and  _89
REMARK   39  A    between atoms: _92  and  _94
REMARK   40  A    between atoms: _94  and  _95
REMARK   41  A    between atoms: _94  and  _97
REMARK   42  A    between atoms: _100  and  _102
REMARK   43  A    between atoms: _102  and  _103
REMARK   44  A    between atoms: _102  and  _105
REMARK   45  A    between atoms: _105  and  _106
REMARK   46  A    between atoms: _109  and  _111
REMARK   47  A    between atoms: _111  and  _112
REMARK   48  A    between atoms: _111  and  _114
REMARK   49  A    between atoms: _114  and  _115
REMARK   50  A    between atoms: _115  and  _116
REMARK   51  A    between atoms: _119  and  _121
REMARK   52  A    between atoms: _121  and  _122
REMARK   53  A    between atoms: _121  and  _124
REMARK   54  A    between atoms: _124  and  _125
REMARK   55  A    between atoms: _125  and  _126
REMARK   56  A    between atoms: _126  and  _127
REMARK   57  A    between atoms: _127  and  _128
REMARK   58  A    between atoms: _132  and  _134
REMARK   59  A    between atoms: _134  and  _135
REMARK   60  A    between atoms: _134  and  _137
REMARK   61  A    between atoms: _137  and  _138
REMARK   62  A    between atoms: _138  and  _139
REMARK   63  A    between atoms: _141  and  _143
REMARK   64  A    between atoms: _143  and  _144
REMARK   65  A    between atoms: _143  and  _146
REMARK   66  A    between atoms: _146  and  _147
REMARK   67  A    between atoms: _150  and  _152
REMARK   68  A    between atoms: _152  and  _153
REMARK   69  A    between atoms: _155  and  _157
REMARK   70  A    between atoms: _157  and  _158
REMARK   71  A    between atoms: _160  and  _162
REMARK   72  A    between atoms: _162  and  _163
REMARK   73  A    between atoms: _162  and  _165
REMARK   74  A    between atoms: _165  and  _166
REMARK   75  A    between atoms: _169  and  _171
REMARK   76  A    between atoms: _171  and  _172
REMARK   77  A    between atoms: _174  and  _176
REMARK   78  A    between atoms: _176  and  _177
REMARK   79  A    between atoms: _179  and  _181
REMARK   80  A    between atoms: _181  and  _182
REMARK   81  A    between atoms: _181  and  _184
REMARK   82  A    between atoms: _184  and  _185
REMARK   83  A    between atoms: _191  and  _193
REMARK   84  A    between atoms: _193  and  _194
REMARK   85  A    between atoms: _193  and  _196
REMARK   86  A    between atoms: _196  and  _197
REMARK   87  A    between atoms: _200  and  _202
REMARK   88  A    between atoms: _202  and  _203
REMARK   89  A    between atoms: _202  and  _205
REMARK   90  A    between atoms: _208  and  _210
REMARK   91  A    between atoms: _210  and  _211
REMARK   92  A    between atoms: _210  and  _213
REMARK   93  A    between atoms: _213  and  _214
REMARK   94  A    between atoms: _217  and  _219
REMARK   95  A    between atoms: _219  and  _220
REMARK   96  A    between atoms: _219  and  _222
REMARK   97  A    between atoms: _222  and  _223
REMARK   98  A    between atoms: _227  and  _228
REMARK   99  A    between atoms: _233  and  _235
REMARK  100  A    between atoms: _235  and  _236
REMARK  101  A    between atoms: _235  and  _238
REMARK  102  A    between atoms: _238  and  _239
REMARK  103  A    between atoms: _242  and  _244
REMARK  104  A    between atoms: _244  and  _245
REMARK  105  A    between atoms: _244  and  _247
REMARK  106  A    between atoms: _247  and  _248
REMARK  107  A    between atoms: _253  and  _255
REMARK  108  A    between atoms: _255  and  _256
REMARK  109  A    between atoms: _255  and  _258
REMARK  110  A    between atoms: _261  and  _263
REMARK  111  A    between atoms: _263  and  _264
REMARK  112  A    between atoms: _263  and  _266
REMARK  113  A    between atoms: _266  and  _267
REMARK  114  A    between atoms: _270  and  _272
REMARK  115  A    between atoms: _272  and  _273
REMARK  116  A    between atoms: _275  and  _277
REMARK  117  A    between atoms: _277  and  _278
REMARK  118  A    between atoms: _277  and  _280
REMARK  119  A    between atoms: _280  and  _281
REMARK  120  A    between atoms: _281  and  _282
REMARK  121  A    between atoms: _282  and  _283
REMARK  122  A    between atoms: _292  and  _294
REMARK  123  A    between atoms: _294  and  _295
REMARK  124  A    between atoms: _294  and  _297
REMARK  125  A    between atoms: _297  and  _298
REMARK  126  A    between atoms: _303  and  _305
REMARK  127  A    between atoms: _305  and  _306
REMARK  128  A    between atoms: _305  and  _308
REMARK  129  A    between atoms: _308  and  _309
REMARK  130  A    between atoms: _309  and  _310
REMARK  131  A    between atoms: _310  and  _311
REMARK  132  A    between atoms: _320  and  _322
REMARK  133  A    between atoms: _322  and  _323
REMARK  134  A    between atoms: _322  and  _325
REMARK  135  A    between atoms: _325  and  _326
REMARK  136  A    between atoms: _329  and  _331
REMARK  137  A    between atoms: _331  and  _332
REMARK  138  A    between atoms: _331  and  _334
REMARK  139  A    between atoms: _334  and  _335
REMARK  140  A    between atoms: _338  and  _340
REMARK  141  A    between atoms: _340  and  _341
REMARK  142  A    between atoms: _340  and  _343
REMARK  143  A    between atoms: _343  and  _344
REMARK  144  A    between atoms: _347  and  _349
REMARK  145  A    between atoms: _349  and  _350
REMARK  146  A    between atoms: _349  and  _352
REMARK  147  A    between atoms: _352  and  _353
REMARK  148  A    between atoms: _356  and  _358
REMARK  149  A    between atoms: _358  and  _359
REMARK  150  A    between atoms: _358  and  _361
REMARK  151  A    between atoms: _361  and  _362
REMARK  152  A    between atoms: _365  and  _367
REMARK  153  A    between atoms: _367  and  _368
REMARK  154  A    between atoms: _370  and  _372
REMARK  155  A    between atoms: _372  and  _373
REMARK  156  A    between atoms: _376  and  _378
REMARK  157  A    between atoms: _378  and  _379
REMARK  158  A    between atoms: _378  and  _381
REMARK  159  A    between atoms: _381  and  _382
REMARK  160  A    between atoms: _385  and  _387
REMARK  161  A    between atoms: _387  and  _388
REMARK  162  A    between atoms: _387  and  _390
REMARK  163  A    between atoms: _390  and  _391
REMARK  164  A    between atoms: _394  and  _396
REMARK  165  A    between atoms: _396  and  _397
REMARK  166  A    between atoms: _396  and  _399
REMARK  167  A    between atoms: _399  and  _400
REMARK  168  A    between atoms: _403  and  _405
REMARK  169  A    between atoms: _405  and  _406
REMARK  170  A    between atoms: _405  and  _408
REMARK  171  A    between atoms: _411  and  _413
REMARK  172  A    between atoms: _413  and  _414
REMARK  173  A    between atoms: _413  and  _416
REMARK  174  A    between atoms: _416  and  _417
REMARK  175  A    between atoms: _417  and  _418
REMARK  176  A    between atoms: _418  and  _419
REMARK  177  A    between atoms: _419  and  _420
REMARK  178  A    between atoms: _424  and  _426
REMARK  179  A    between atoms: _426  and  _427
REMARK  180  A    between atoms: _426  and  _429
REMARK  181  A    between atoms: _429  and  _430
REMARK  182  A    between atoms: _430  and  _431
REMARK  183  A    between atoms: _433  and  _435
REMARK  184  A    between atoms: _435  and  _436
REMARK  185  A    between atoms: _435  and  _438
REMARK  186  A    between atoms: _438  and  _439
REMARK  187  A    between atoms: _442  and  _444
REMARK  188  A    between atoms: _444  and  _445
REMARK  189  A    between atoms: _447  and  _449
REMARK  190  A    between atoms: _449  and  _450
REMARK  191  A    between atoms: _452  and  _454
REMARK  192  A    between atoms: _454  and  _455
REMARK  193  A    between atoms: _454  and  _457
REMARK  194  A    between atoms: _457  and  _458
REMARK  195  A    between atoms: _461  and  _463
REMARK  196  A    between atoms: _463  and  _464
REMARK  197  A    between atoms: _466  and  _468
REMARK  198  A    between atoms: _468  and  _469
REMARK  199  A    between atoms: _471  and  _473
REMARK  200  A    between atoms: _473  and  _474
REMARK  201  A    between atoms: _473  and  _476
REMARK  202  A    between atoms: _476  and  _477
REMARK  203  A    between atoms: _483  and  _485
REMARK  204  A    between atoms: _485  and  _486
REMARK  205  A    between atoms: _485  and  _488
REMARK  206  A    between atoms: _488  and  _489
REMARK  207  A    between atoms: _492  and  _494
REMARK  208  A    between atoms: _494  and  _495
REMARK  209  A    between atoms: _494  and  _497
REMARK  210  A    between atoms: _500  and  _502
REMARK  211  A    between atoms: _502  and  _503
REMARK  212  A    between atoms: _502  and  _505
REMARK  213  A    between atoms: _505  and  _506
REMARK  214  A    between atoms: _509  and  _511
REMARK  215  A    between atoms: _511  and  _512
REMARK  216  A    between atoms: _511  and  _514
REMARK  217  A    between atoms: _514  and  _515
REMARK  218  A    between atoms: _519  and  _520
REMARK  219  A    between atoms: _525  and  _527
REMARK  220  A    between atoms: _527  and  _528
REMARK  221  A    between atoms: _527  and  _530
REMARK  222  A    between atoms: _530  and  _531
REMARK  223  A    between atoms: _534  and  _536
REMARK  224  A    between atoms: _536  and  _537
REMARK  225  A    between atoms: _536  and  _539
REMARK  226  A    between atoms: _539  and  _540
REMARK  227  A    between atoms: _545  and  _547
REMARK  228  A    between atoms: _547  and  _548
REMARK  229  A    between atoms: _547  and  _550
REMARK  230  A    between atoms: _553  and  _555
REMARK  231  A    between atoms: _555  and  _556
REMARK  232  A    between atoms: _555  and  _558
REMARK  233  A    between atoms: _558  and  _559
REMARK  234  A    between atoms: _562  and  _564
REMARK  235  A    between atoms: _564  and  _565
REMARK  236  A    between atoms: _567  and  _569
REMARK  237  A    between atoms: _569  and  _570
REMARK  238  A    between atoms: _569  and  _572
REMARK  239  A    between atoms: _572  and  _573
REMARK  240  A    between atoms: _573  and  _574
REMARK  241  A    between atoms: _574  and  _575
REMARK                            x       y       z     vdW  Elec       q    Type
REMARK                         _______ _______ _______ _____ _____    ______ ____
ROOT
ATOM      1  CA  ASP A   7       8.741  31.650   5.689  0.00  0.00    +0.160 C 
ENDROOT
BRANCH   1   2
ATOM      2  C   ASP A   7       8.984  32.292   7.051  0.00  0.00    +0.241 C 
ATOM      3  N   ASP A   8       8.984  31.447   8.078  0.00  0.00    -0.297 N 
ATOM      4  H   ASP A   8       8.870  30.431   7.890  0.00  0.00    +0.150 HD
ATOM      5  O   ASP A   7       9.156  33.508   7.169  0.00  0.00    -0.273 OA
BRANCH   3   6
ATOM      6  CA  ASP A   8       9.137  31.891   9.455  0.00  0.00    +0.160 C 
BRANCH   6   7
ATOM      7  C   ASP A   8      10.424  31.446  10.127  0.00  0.00    +0.241 C 
ATOM      8  N   THR A   9      10.618  31.938  11.343  0.00  0.00    -0.295 N 
ATOM      9  H   THR A   9       9.911  32.590  11.738  0.00  0.00    +0.150 HD
ATOM     10  O   ASP A   8      11.208  30.681   9.575  0.00  0.00    -0.273 OA
BRANCH   8  11
ATOM     11  CA  THR A   9      11.784  31.599  12.145  0.00  0.00    +0.176 C 
BRANCH  11  12
ATOM     12  C   THR A   9      11.283  30.682  13.250  0.00  0.00    +0.243 C 
ATOM     13  O   THR A   9      10.314  31.011  13.928  0.00  0.00    -0.273 OA
ATOM     14  N   VAL A  10      11.917  29.526  13.417  0.00  0.00    -0.297 N 
ATOM     15  H   VAL A  10      12.717  29.282  12.799  0.00  0.00    +0.150 HD
BRANCH  14  16
ATOM     16  CA  VAL A  10      11.499  28.598  14.461  0.00  0.00    +0.149 C 
BRANCH  16  17
ATOM     17  C   VAL A  10      12.706  28.122  15.261  0.00  0.00    +0.241 C 
ATOM     18  N   LEU A  11      12.575  28.185  16.579  0.00  0.00    -0.297 N 
ATOM     19  H   LEU A  11      11.682  28.534  16.983  0.00  0.00    +0.150 HD
ATOM     20  O   VAL A  10      13.733  27.721  14.700  0.00  0.00    -0.273 OA
BRANCH  18  21
ATOM     21  CA  LEU A  11      13.647  27.779  17.474  0.00  0.00    +0.149 C 
BRANCH  21  22
ATOM     22  C   LEU A  11      13.167  26.667  18.397  0.00  0.00    +0.241 C 
ATOM     23  N   GLU A  12      14.105  25.872  18.899  0.00  0.00    -0.298 N 
ATOM     24  H   GLU A  12      15.099  26.029  18.635  0.00  0.00    +0.150 HD
ATOM     25  O   LEU A  11      11.971  26.536  18.649  0.00  0.00    -0.273 OA
BRANCH  23  26
ATOM     26  CA  GLU A  12      13.773  24.784  19.812  0.00  0.00    +0.137 C 
BRANCH  26  27
ATOM     27  C   GLU A  12      13.215  25.386  21.101  0.00  0.00    +0.227 C 
ATOM     28  O   GLU A  12      13.378  26.580  21.356  0.00  0.00    -0.286 OA
ENDBRANCH  26  27
BRANCH  26  29
ATOM     29  CB  GLU A  12      15.021  23.962  20.126  0.00  0.00    +0.039 C 
BRANCH  29  30
ATOM     30  CG  GLU A  12      15.813  23.572  18.895  0.00  0.00    +0.116 C 
BRANCH  30  31
ATOM     31  CD  GLU A  12      17.129  22.907  19.241  0.00  0.00    +0.365 C 
ATOM     32  OE2 GLU A  12      17.806  23.381  20.185  0.00  0.00    -0.246 OA
ATOM     33  OE1 GLU A  12      17.488  21.921  18.562  0.00  0.00    -0.246 OA
ENDBRANCH  30  31
ENDBRANCH  29  30
ENDBRANCH  26  29
ENDBRANCH  23  26
ENDBRANCH  21  22
BRANCH  21  34
ATOM     34  CB  LEU A  11      14.101  28.974  18.314  0.00  0.00    +0.029 C 
BRANCH  34  35
ATOM     35  CG  LEU A  11      14.586  30.217  17.559  0.00  0.00    +0.002 C 
ATOM     36  CD2 LEU A  11      14.943  31.317  18.557  0.00  0.00    +0.000 C 
ATOM     37  CD1 LEU A  11      15.798  29.856  16.705  0.00  0.00    +0.000 C 
ENDBRANCH  34  35
ENDBRANCH  21  34
ENDBRANCH  18  21
ENDBRANCH  16  17
BRANCH  16  38
ATOM     38  CB  VAL A  10      10.742  27.376  13.878  0.00  0.00    +0.027 C 
ATOM     39  CG2 VAL A  10      10.075  26.598  15.000  0.00  0.00    +0.002 C 
ATOM     40  CG1 VAL A  10      11.688  26.487  13.101  0.00  0.00    +0.002 C 
ENDBRANCH  16  38
ENDBRANCH  14  16
ENDBRANCH  11  12
BRANCH  11  41
ATOM     41  CB  THR A   9      12.398  32.868  12.766  0.00  0.00    +0.137 C 
ATOM     42  CG2 THR A   9      13.479  32.516  13.774  0.00  0.00    +0.034 C 
BRANCH  41  43
ATOM     43  OG1 THR A   9      12.959  33.675  11.722  0.00  0.00    -0.382 OA
ATOM     44  HG1 THR A   9      12.247  33.927  11.082  0.00  0.00    +0.210 HD
ENDBRANCH  41  43
ENDBRANCH  11  41
ENDBRANCH   8  11
ENDBRANCH   6   7
BRANCH   6  45
ATOM     45  CB  ASP A   8       7.956  31.379  10.283  0.00  0.00    +0.143 C 
BRANCH  45  46
ATOM     46  CG  ASP A   8       6.631  31.533   9.563  0.00  0.00    +0.367 C 
ATOM     47  OD2 ASP A   8       5.865  30.546   9.499  0.00  0.00    -0.246 OA
ATOM     48  OD1 ASP A   8       6.354  32.641   9.069  0.00  0.00    -0.246 OA
ENDBRANCH  45  46
ENDBRANCH   6  45
ENDBRANCH   3   6
ENDBRANCH   1   2
BRANCH   1  50
ATOM     49  C   ALA A   6      10.839  30.416   5.548  0.00  0.00    +0.241 C 
ATOM     50  N   ASP A   7       9.508  30.406   5.628  0.00  0.00    -0.297 N 
ATOM     51  H   ASP A   7       9.005  29.496   5.647  0.00  0.00    +0.150 HD
ATOM     52  O   ALA A   6      11.497  31.449   5.486  0.00  0.00    -0.273 OA
BRANCH  49  53
ATOM     53  CA  ALA A   6      11.533  29.059   5.528  0.00  0.00    +0.149 C 
ATOM     54  CB  ALA A   6      12.271  28.842   6.848  0.00  0.00    +0.031 C 
BRANCH  53  56
ATOM     55  C   GLY A   5      12.088  28.326   3.264  0.00  0.00    +0.243 C 
ATOM     56  N   ALA A   6      12.462  28.884   4.414  0.00  0.00    -0.297 N 
ATOM     57  H   ALA A   6      13.445  29.205   4.522  0.00  0.00    +0.150 HD
ATOM     58  O   GLY A   5      10.938  27.934   3.054  0.00  0.00    -0.273 OA
BRANCH  55  59
ATOM     59  CA  GLY A   5      13.157  28.193   2.191  0.00  0.00    +0.176 C 
BRANCH  59  61
ATOM     60  C   THR A   4      14.449  30.231   2.215  0.00  0.00    +0.243 C 
ATOM     61  N   GLY A   5      14.362  28.938   2.511  0.00  0.00    -0.295 N 
ATOM     62  H   GLY A   5      15.160  28.458   2.974  0.00  0.00    +0.150 HD
ATOM     63  O   THR A   4      13.536  30.851   1.672  0.00  0.00    -0.273 OA
BRANCH  60  64
ATOM     64  CA  THR A   4      15.752  30.940   2.592  0.00  0.00    +0.176 C 
BRANCH  64  67
ATOM     65  C   ASP A   3      16.145  30.063   4.827  0.00  0.00    +0.241 C 
ATOM     66  O   ASP A   3      15.066  30.495   5.227  0.00  0.00    -0.273 OA
ATOM     67  N   THR A   4      16.556  30.206   3.566  0.00  0.00    -0.295 N 
ATOM     68  H   THR A   4      17.462  29.789   3.272  0.00  0.00    +0.150 HD
BRANCH  65  69
ATOM     69  CA  ASP A   3      17.057  29.292   5.771  0.00  0.00    +0.160 C 
BRANCH  69  71
ATOM     70  C   LEU A   2      19.224  30.067   6.592  0.00  0.00    +0.241 C 
ATOM     71  N   ASP A   3      17.895  30.112   6.645  0.00  0.00    -0.297 N 
ATOM     72  H   ASP A   3      17.439  30.749   7.328  0.00  0.00    +0.150 HD
ATOM     73  O   LEU A   2      19.839  29.418   5.749  0.00  0.00    -0.273 OA
BRANCH  70  74
ATOM     74  CA  LEU A   2      19.974  30.888   7.641  0.00  0.00    +0.149 C 
BRANCH  74  77
ATOM     75  C   LEU A   1      19.856  29.176   9.359  0.00  0.00    +0.238 C 
ATOM     76  O   LEU A   1      18.666  29.412   9.542  0.00  0.00    -0.274 OA
ATOM     77  N   LEU A   2      20.592  29.858   8.484  0.00  0.00    -0.297 N 
ATOM     78  H   LEU A   2      21.609  29.660   8.398  0.00  0.00    +0.150 HD
BRANCH  75  79
ATOM     79  CA  LEU A   1      20.548  28.079  10.167  0.00  0.00    +0.145 C 
BRANCH  79  80
ATOM     80  N   LEU A   1      20.307  28.235  11.592  0.00  0.00    -0.238 NA
ATOM     81  H   LEU A   1      19.431  27.848  11.998  0.00  0.00    +0.142 HD
ENDBRANCH  79  80
BRANCH  79  82
ATOM     82  CB  LEU A   1      20.018  26.712   9.739  0.00  0.00    +0.026 C 
BRANCH  82  83
ATOM     83  CG  LEU A   1      20.192  26.246   8.301  0.00  0.00    +0.002 C 
ATOM     84  CD2 LEU A   1      19.451  24.925   8.133  0.00  0.00    +0.000 C 
ATOM     85  CD1 LEU A   1      21.666  26.077   7.985  0.00  0.00    +0.000 C 
ENDBRANCH  82  83
ENDBRANCH  79  82
ENDBRANCH  75  79
ENDBRANCH  74  77
BRANCH  74  86
ATOM     86  CB  LEU A   2      21.041  31.772   6.986  0.00  0.00    +0.029 C 
BRANCH  86  87
ATOM     87  CG  LEU A   2      21.937  32.533   7.970  0.00  0.00    +0.002 C 
ATOM     88  CD2 LEU A   2      21.081  33.314   8.948  0.00  0.00    +0.000 C 
ATOM     89  CD1 LEU A   2      22.853  33.473   7.208  0.00  0.00    +0.000 C 
ENDBRANCH  86  87
ENDBRANCH  74  86
ENDBRANCH  70  74
ENDBRANCH  69  71
BRANCH  69  90
ATOM     90  CB  ASP A   3      16.204  28.380   6.658  0.00  0.00    +0.143 C 
BRANCH  90  91
ATOM     91  CG  ASP A   3      15.584  27.228   5.899  0.00  0.00    +0.367 C 
ATOM     92  OD2 ASP A   3      15.239  26.215   6.548  0.00  0.00    -0.246 OA
ATOM     93  OD1 ASP A   3      15.434  27.338   4.669  0.00  0.00    -0.246 OA
ENDBRANCH  90  91
ENDBRANCH  69  90
ENDBRANCH  65  69
ENDBRANCH  64  67
BRANCH  64  94
ATOM     94  CB  THR A   4      16.551  31.229   1.293  0.00  0.00    +0.137 C 
ATOM     95  CG2 THR A   4      17.737  32.145   1.585  0.00  0.00    +0.034 C 
BRANCH  94  96
ATOM     96  OG1 THR A   4      17.025  29.999   0.730  0.00  0.00    -0.382 OA
ATOM     97  HG1 THR A   4      16.254  29.416   0.517  0.00  0.00    +0.210 HD
ENDBRANCH  94  96
ENDBRANCH  64  94
ENDBRANCH  60  64
ENDBRANCH  59  61
ENDBRANCH  55  59
ENDBRANCH  53  56
ENDBRANCH  49  53
ENDBRANCH   1  50
BRANCH   1  98
ATOM     98  CB  ASP A   7       7.232  31.393   5.594  0.00  0.00    +0.143 C 
BRANCH  98  99
ATOM     99  CG  ASP A   7       6.763  31.035   4.197  0.00  0.00    +0.367 C 
ATOM    100  OD2 ASP A   7       5.574  30.666   4.074  0.00  0.00    -0.246 OA
ATOM    101  OD1 ASP A   7       7.550  31.132   3.232  0.00  0.00    -0.246 OA
ENDBRANCH  98  99
ENDBRANCH   1  98
TORSDOF 44
REMARK  Name = ../refined-set-2016/4a4q/4a4q_pocket.pdb
REMARK  241 active torsions:
REMARK  status: ('A' for Active; 'I' for Inactive)
REMARK    1  A    between atoms: _1  and  _3
REMARK    2  A    between atoms: _3  and  _4
REMARK    3  A    between atoms: _3  and  _6
REMARK    4  A    between atoms: _6  and  _7
REMARK    5  A    between atoms: _7  and  _8
REMARK    6  A    between atoms: _8  and  _9
REMARK    7  A    between atoms: _18  and  _20
REMARK    8  A    between atoms: _20  and  _21
REMARK    9  A    between atoms: _20  and  _23
REMARK   10  A    between atoms: _23  and  _24
REMARK   11  A    between atoms: _27  and  _29
REMARK   12  A    between atoms: _29  and  _30
REMARK   13  A    between atoms: _29  and  _32
REMARK   14  A    between atoms: _32  and  _33
REMARK   15  A    between atoms: _36  and  _38
REMARK   16  A    between atoms: _38  and  _39
REMARK   17  A    between atoms: _38  and  _41
REMARK   18  A    between atoms: _41  and  _42
REMARK   19  A    between atoms: _45  and  _47
REMARK   20  A    between atoms: _47  and  _48
REMARK   21  A    between atoms: _47  and  _50
REMARK   22  A    between atoms: _50  and  _51
REMARK   23  A    between atoms: _54  and  _56
REMARK   24  A    between atoms: _56  and  _57
REMARK   25  A    between atoms: _59  and  _61
REMARK   26  A    between atoms: _61  and  _62
REMARK   27  A    between atoms: _65  and  _67
REMARK   28  A    between atoms: _67  and  _68
REMARK   29  A    between atoms: _67  and  _70
REMARK   30  A    between atoms: _70  and  _71
REMARK   31  A    between atoms: _74  and  _76
REMARK   32  A    between atoms: _76  and  _77
REMARK   33  A    between atoms: _76  and  _79
REMARK   34  A    between atoms: _79  and  _80
REMARK   35  A    between atoms: _83  and  _85
REMARK   36  A    between atoms: _85  and  _86
REMARK   37  A    between atoms: _85  and  _88
REMARK   38  A    between atoms: _88  and  _89
REMARK   39  A    between atoms: _92  and  _94
REMARK   40  A    between atoms: _94  and  _95
REMARK   41  A    between atoms: _94  and  _97
REMARK   42  A    between atoms: _100  and  _102
REMARK   43  A    between atoms: _102  and  _103
REMARK   44  A    between atoms: _102  and  _105
REMARK   45  A    between atoms: _105  and  _106
REMARK   46  A    between atoms: _109  and  _111
REMARK   47  A    between atoms: _111  and  _112
REMARK   48  A    between atoms: _111  and  _114
REMARK   49  A    between atoms: _114  and  _115
REMARK   50  A    between atoms: _115  and  _116
REMARK   51  A    between atoms: _119  and  _121
REMARK   52  A    between atoms: _121  and  _122
REMARK   53  A    between atoms: _121  and  _124
REMARK   54  A    between atoms: _124  and  _125
REMARK   55  A    between atoms: _125  and  _126
REMARK   56  A    between atoms: _126  and  _127
REMARK   57  A    between atoms: _127  and  _128
REMARK   58  A    between atoms: _132  and  _134
REMARK   59  A    between atoms: _134  and  _135
REMARK   60  A    between atoms: _134  and  _137
REMARK   61  A    between atoms: _137  and  _138
REMARK   62  A    between atoms: _138  and  _139
REMARK   63  A    between atoms: _141  and  _143
REMARK   64  A    between atoms: _143  and  _144
REMARK   65  A    between atoms: _143  and  _146
REMARK   66  A    between atoms: _146  and  _147
REMARK   67  A    between atoms: _150  and  _152
REMARK   68  A    between atoms: _152  and  _153
REMARK   69  A    between atoms: _155  and  _157
REMARK   70  A    between atoms: _157  and  _158
REMARK   71  A    between atoms: _160  and  _162
REMARK   72  A    between atoms: _162  and  _163
REMARK   73  A    between atoms: _162  and  _165
REMARK   74  A    between atoms: _165  and  _166
REMARK   75  A    between atoms: _169  and  _171
REMARK   76  A    between atoms: _171  and  _172
REMARK   77  A    between atoms: _174  and  _176
REMARK   78  A    between atoms: _176  and  _177
REMARK   79  A    between atoms: _179  and  _181
REMARK   80  A    between atoms: _181  and  _182
REMARK   81  A    between atoms: _181  and  _184
REMARK   82  A    between atoms: _184  and  _185
REMARK   83  A    between atoms: _191  and  _193
REMARK   84  A    between atoms: _193  and  _194
REMARK   85  A    between atoms: _193  and  _196
REMARK   86  A    between atoms: _196  and  _197
REMARK   87  A    between atoms: _200  and  _202
REMARK   88  A    between atoms: _202  and  _203
REMARK   89  A    between atoms: _202  and  _205
REMARK   90  A    between atoms: _208  and  _210
REMARK   91  A    between atoms: _210  and  _211
REMARK   92  A    between atoms: _210  and  _213
REMARK   93  A    between atoms: _213  and  _214
REMARK   94  A    between atoms: _217  and  _219
REMARK   95  A    between atoms: _219  and  _220
REMARK   96  A    between atoms: _219  and  _222
REMARK   97  A    between atoms: _222  and  _223
REMARK   98  A    between atoms: _227  and  _228
REMARK   99  A    between atoms: _233  and  _235
REMARK  100  A    between atoms: _235  and  _236
REMARK  101  A    between atoms: _235  and  _238
REMARK  102  A    between atoms: _238  and  _239
REMARK  103  A    between atoms: _242  and  _244
REMARK  104  A    between atoms: _244  and  _245
REMARK  105  A    between atoms: _244  and  _247
REMARK  106  A    between atoms: _247  and  _248
REMARK  107  A    between atoms: _253  and  _255
REMARK  108  A    between atoms: _255  and  _256
REMARK  109  A    between atoms: _255  and  _258
REMARK  110  A    between atoms: _261  and  _263
REMARK  111  A    between atoms: _263  and  _264
REMARK  112  A    between atoms: _263  and  _266
REMARK  113  A    between atoms: _266  and  _267
REMARK  114  A    between atoms: _270  and  _272
REMARK  115  A    between atoms: _272  and  _273
REMARK  116  A    between atoms: _275  and  _277
REMARK  117  A    between atoms: _277  and  _278
REMARK  118  A    between atoms: _277  and  _280
REMARK  119  A    between atoms: _280  and  _281
REMARK  120  A    between atoms: _281  and  _282
REMARK  121  A    between atoms: _282  and  _283
REMARK  122  A    between atoms: _292  and  _294
REMARK  123  A    between atoms: _294  and  _295
REMARK  124  A    between atoms: _294  and  _297
REMARK  125  A    between atoms: _297  and  _298
REMARK  126  A    between atoms: _303  and  _305
REMARK  127  A    between atoms: _305  and  _306
REMARK  128  A    between atoms: _305  and  _308
REMARK  129  A    between atoms: _308  and  _309
REMARK  130  A    between atoms: _309  and  _310
REMARK  131  A    between atoms: _310  and  _311
REMARK  132  A    between atoms: _320  and  _322
REMARK  133  A    between atoms: _322  and  _323
REMARK  134  A    between atoms: _322  and  _325
REMARK  135  A    between atoms: _325  and  _326
REMARK  136  A    between atoms: _329  and  _331
REMARK  137  A    between atoms: _331  and  _332
REMARK  138  A    between atoms: _331  and  _334
REMARK  139  A    between atoms: _334  and  _335
REMARK  140  A    between atoms: _338  and  _340
REMARK  141  A    between atoms: _340  and  _341
REMARK  142  A    between atoms: _340  and  _343
REMARK  143  A    between atoms: _343  and  _344
REMARK  144  A    between atoms: _347  and  _349
REMARK  145  A    between atoms: _349  and  _350
REMARK  146  A    between atoms: _349  and  _352
REMARK  147  A    between atoms: _352  and  _353
REMARK  148  A    between atoms: _356  and  _358
REMARK  149  A    between atoms: _358  and  _359
REMARK  150  A    between atoms: _358  and  _361
REMARK  151  A    between atoms: _361  and  _362
REMARK  152  A    between atoms: _365  and  _367
REMARK  153  A    between atoms: _367  and  _368
REMARK  154  A    between atoms: _370  and  _372
REMARK  155  A    between atoms: _372  and  _373
REMARK  156  A    between atoms: _376  and  _378
REMARK  157  A    between atoms: _378  and  _379
REMARK  158  A    between atoms: _378  and  _381
REMARK  159  A    between atoms: _381  and  _382
REMARK  160  A    between atoms: _385  and  _387
REMARK  161  A    between atoms: _387  and  _388
REMARK  162  A    between atoms: _387  and  _390
REMARK  163  A    between atoms: _390  and  _391
REMARK  164  A    between atoms: _394  and  _396
REMARK  165  A    between atoms: _396  and  _397
REMARK  166  A    between atoms: _396  and  _399
REMARK  167  A    between atoms: _399  and  _400
REMARK  168  A    between atoms: _403  and  _405
REMARK  169  A    between atoms: _405  and  _406
REMARK  170  A    between atoms: _405  and  _408
REMARK  171  A    between atoms: _411  and  _413
REMARK  172  A    between atoms: _413  and  _414
REMARK  173  A    between atoms: _413  and  _416
REMARK  174  A    between atoms: _416  and  _417
REMARK  175  A    between atoms: _417  and  _418
REMARK  176  A    between atoms: _418  and  _419
REMARK  177  A    between atoms: _419  and  _420
REMARK  178  A    between atoms: _424  and  _426
REMARK  179  A    between atoms: _426  and  _427
REMARK  180  A    between atoms: _426  and  _429
REMARK  181  A    between atoms: _429  and  _430
REMARK  182  A    between atoms: _430  and  _431
REMARK  183  A    between atoms: _433  and  _435
REMARK  184  A    between atoms: _435  and  _436
REMARK  185  A    between atoms: _435  and  _438
REMARK  186  A    between atoms: _438  and  _439
REMARK  187  A    between atoms: _442  and  _444
REMARK  188  A    between atoms: _444  and  _445
REMARK  189  A    between atoms: _447  and  _449
REMARK  190  A    between atoms: _449  and  _450
REMARK  191  A    between atoms: _452  and  _454
REMARK  192  A    between atoms: _454  and  _455
REMARK  193  A    between atoms: _454  and  _457
REMARK  194  A    between atoms: _457  and  _458
REMARK  195  A    between atoms: _461  and  _463
REMARK  196  A    between atoms: _463  and  _464
REMARK  197  A    between atoms: _466  and  _468
REMARK  198  A    between atoms: _468  and  _469
REMARK  199  A    between atoms: _471  and  _473
REMARK  200  A    between atoms: _473  and  _474
REMARK  201  A    between atoms: _473  and  _476
REMARK  202  A    between atoms: _476  and  _477
REMARK  203  A    between atoms: _483  and  _485
REMARK  204  A    between atoms: _485  and  _486
REMARK  205  A    between atoms: _485  and  _488
REMARK  206  A    between atoms: _488  and  _489
REMARK  207  A    between atoms: _492  and  _494
REMARK  208  A    between atoms: _494  and  _495
REMARK  209  A    between atoms: _494  and  _497
REMARK  210  A    between atoms: _500  and  _502
REMARK  211  A    between atoms: _502  and  _503
REMARK  212  A    between atoms: _502  and  _505
REMARK  213  A    between atoms: _505  and  _506
REMARK  214  A    between atoms: _509  and  _511
REMARK  215  A    between atoms: _511  and  _512
REMARK  216  A    between atoms: _511  and  _514
REMARK  217  A    between atoms: _514  and  _515
REMARK  218  A    between atoms: _519  and  _520
REMARK  219  A    between atoms: _525  and  _527
REMARK  220  A    between atoms: _527  and  _528
REMARK  221  A    between atoms: _527  and  _530
REMARK  222  A    between atoms: _530  and  _531
REMARK  223  A    between atoms: _534  and  _536
REMARK  224  A    between atoms: _536  and  _537
REMARK  225  A    between atoms: _536  and  _539
REMARK  226  A    between atoms: _539  and  _540
REMARK  227  A    between atoms: _545  and  _547
REMARK  228  A    between atoms: _547  and  _548
REMARK  229  A    between atoms: _547  and  _550
REMARK  230  A    between atoms: _553  and  _555
REMARK  231  A    between atoms: _555  and  _556
REMARK  232  A    between atoms: _555  and  _558
REMARK  233  A    between atoms: _558  and  _559
REMARK  234  A    between atoms: _562  and  _564
REMARK  235  A    between atoms: _564  and  _565
REMARK  236  A    between atoms: _567  and  _569
REMARK  237  A    between atoms: _569  and  _570
REMARK  238  A    between atoms: _569  and  _572
REMARK  239  A    between atoms: _572  and  _573
REMARK  240  A    between atoms: _573  and  _574
REMARK  241  A    between atoms: _574  and  _575
REMARK                            x       y       z     vdW  Elec       q    Type
REMARK                         _______ _______ _______ _____ _____    ______ ____
ROOT
ATOM      1  C   GLY A   5       7.718  19.477   5.762  0.00  0.00    +0.243 C 
ATOM      2  O   GLY A   5       6.734  18.736   5.759  0.00  0.00    -0.273 OA
ATOM      3  N   ILE A   6       8.926  19.072   5.400  0.00  0.00    -0.297 N 
ATOM      4  H   ILE A   6       9.718  19.747   5.403  0.00  0.00    +0.150 HD
ENDROOT
BRANCH   3   5
ATOM      5  CA  ILE A   6       9.156  17.694   4.999  0.00  0.00    +0.149 C 
BRANCH   5   6
ATOM      6  C   ILE A   6       8.791  16.823   6.195  0.00  0.00    +0.241 C 
ATOM      7  O   ILE A   6       9.238  17.082   7.309  0.00  0.00    -0.273 OA
ATOM      8  N   GLY A   7       7.978  15.799   5.972  0.00  0.00    -0.295 N 
ATOM      9  H   GLY A   7       7.607  15.623   5.017  0.00  0.00    +0.150 HD
BRANCH   8  10
ATOM     10  CA  GLY A   7       7.610  14.926   7.072  0.00  0.00    +0.176 C 
BRANCH  10  11
ATOM     11  C   GLY A   7       6.314  15.251   7.793  0.00  0.00    +0.243 C 
ATOM     12  O   GLY A   7       5.834  14.436   8.579  0.00  0.00    -0.273 OA
ATOM     13  N   GLY A   8       5.743  16.427   7.555  0.00  0.00    -0.295 N 
ATOM     14  H   GLY A   8       6.189  17.103   6.902  0.00  0.00    +0.150 HD
BRANCH  13  15
ATOM     15  CA  GLY A   8       4.489  16.764   8.214  0.00  0.00    +0.176 C 
BRANCH  15  16
ATOM     16  C   GLY A   8       4.499  18.050   9.022  0.00  0.00    +0.243 C 
ATOM     17  N   PHE A   9       3.482  18.233   9.863  0.00  0.00    -0.297 N 
ATOM     18  H   PHE A   9       2.752  17.497   9.940  0.00  0.00    +0.150 HD
ATOM     19  O   GLY A   8       5.416  18.856   8.897  0.00  0.00    -0.273 OA
BRANCH  17  20
ATOM     20  CA  PHE A   9       3.363  19.442  10.683  0.00  0.00    +0.153 C 
BRANCH  20  21
ATOM     21  C   PHE A   9       3.729  19.257  12.154  0.00  0.00    +0.241 C 
ATOM     22  N   ILE A  10       4.109  20.357  12.798  0.00  0.00    -0.298 N 
ATOM     23  H   ILE A  10       4.190  21.248  12.268  0.00  0.00    +0.150 HD
ATOM     24  O   PHE A   9       3.677  18.150  12.689  0.00  0.00    -0.273 OA
BRANCH  22  25
ATOM     25  CA  ILE A  10       4.416  20.352  14.226  0.00  0.00    +0.137 C 
BRANCH  25  26
ATOM     26  C   ILE A  10       3.720  21.575  14.809  0.00  0.00    +0.227 C 
ATOM     27  O   ILE A  10       3.472  22.550  14.101  0.00  0.00    -0.286 OA
ENDBRANCH  25  26
BRANCH  25  28
ATOM     28  CB  ILE A  10       5.938  20.448  14.540  0.00  0.00    +0.026 C 
ATOM     29  CG2 ILE A  10       6.650  19.200  14.048  0.00  0.00    +0.002 C 
BRANCH  28  30
ATOM     30  CG1 ILE A  10       6.536  21.713  13.921  0.00  0.00    +0.002 C 
ATOM     31  CD1 ILE A  10       7.945  22.015  14.398  0.00  0.00    +0.000 C 
ENDBRANCH  28  30
ENDBRANCH  25  28
ENDBRANCH  22  25
ENDBRANCH  20  21
BRANCH  20  32
ATOM     32  CB  PHE A   9       1.929  19.983  10.633  0.00  0.00    +0.055 C 
BRANCH  32  33
ATOM     33  CG  PHE A   9       1.509  20.495   9.285  0.00  0.00    -0.020 A 
ATOM     34  CD2 PHE A   9       1.294  21.854   9.087  0.00  0.00    -0.004 A 
ATOM     35  CE2 PHE A   9       0.894  22.342   7.852  0.00  0.00    -0.000 A 
ATOM     36  CZ  PHE A   9       0.705  21.464   6.792  0.00  0.00    -0.000 A 
ATOM     37  CE1 PHE A   9       0.917  20.099   6.977  0.00  0.00    -0.000 A 
ATOM     38  CD1 PHE A   9       1.317  19.623   8.220  0.00  0.00    -0.004 A 
ENDBRANCH  32  33
ENDBRANCH  20  32
ENDBRANCH  17  20
ENDBRANCH  15  16
ENDBRANCH  13  15
ENDBRANCH  10  11
ENDBRANCH   8  10
ENDBRANCH   5   6
BRANCH   5  39
ATOM     39  CB  ILE A   6      10.639  17.450   4.663  0.00  0.00    +0.027 C 
ATOM     40  CG2 ILE A   6      10.844  15.993   4.271  0.00  0.00    +0.002 C 
BRANCH  39  41
ATOM     41  CG1 ILE A   6      11.097  18.404   3.556  0.00  0.00    +0.002 C 
ATOM     42  CD1 ILE A   6      10.416  18.201   2.236  0.00  0.00    +0.000 C 
ENDBRANCH  39  41
ENDBRANCH   5  39
ENDBRANCH   3   5
BRANCH   1  43
ATOM     43  CA  GLY A   5       7.582  20.921   6.185  0.00  0.00    +0.176 C 
BRANCH  43  45
ATOM     44  C   GLY A   4       5.674  22.132   7.034  0.00  0.00    +0.243 C 
ATOM     45  N   GLY A   5       6.378  21.011   6.982  0.00  0.00    -0.295 N 
ATOM     46  H   GLY A   5       6.060  20.182   7.523  0.00  0.00    +0.150 HD
ATOM     47  O   GLY A   4       5.995  23.162   6.448  0.00  0.00    -0.273 OA
BRANCH  44  48
ATOM     48  CA  GLY A   4       4.431  22.066   7.886  0.00  0.00    +0.176 C 
BRANCH  48  51
ATOM     49  C   ILE A   3       4.129  23.345   9.892  0.00  0.00    +0.241 C 
ATOM     50  O   ILE A   3       4.416  22.375  10.590  0.00  0.00    -0.273 OA
ATOM     51  N   GLY A   4       4.115  23.301   8.567  0.00  0.00    -0.295 N 
ATOM     52  H   GLY A   4       3.877  24.153   8.019  0.00  0.00    +0.150 HD
BRANCH  49  53
ATOM     53  CA  ILE A   3       3.753  24.673  10.521  0.00  0.00    +0.149 C 
BRANCH  53  55
ATOM     54  C   MET A   2       1.699  24.897  11.763  0.00  0.00    +0.241 C 
ATOM     55  N   ILE A   3       2.927  24.405  11.687  0.00  0.00    -0.297 N 
ATOM     56  H   ILE A   3       3.301  23.825  12.465  0.00  0.00    +0.150 HD
ATOM     57  O   MET A   2       1.222  25.628  10.896  0.00  0.00    -0.273 OA
BRANCH  54  58
ATOM     58  CA  MET A   2       0.887  24.541  12.997  0.00  0.00    +0.149 C 
BRANCH  58  61
ATOM     59  C   LYS A   1       0.840  26.227  14.739  0.00  0.00    +0.238 C 
ATOM     60  O   LYS A   1       1.605  25.585  15.456  0.00  0.00    -0.274 OA
ATOM     61  N   MET A   2       0.413  25.792  13.560  0.00  0.00    -0.297 N 
ATOM     62  H   MET A   2      -0.277  26.360  13.028  0.00  0.00    +0.150 HD
BRANCH  59  63
ATOM     63  CA  LYS A   1       0.301  27.571  15.189  0.00  0.00    +0.145 C 
BRANCH  63  64
ATOM     64  N   LYS A   1       0.224  27.588  16.639  0.00  0.00    -0.238 NA
ATOM     65  H   LYS A   1       0.862  26.976  17.187  0.00  0.00    +0.142 HD
ENDBRANCH  63  64
BRANCH  63  66
ATOM     66  CB  LYS A   1       1.225  28.690  14.688  0.00  0.00    +0.026 C 
BRANCH  66  67
ATOM     67  CG  LYS A   1       1.309  28.791  13.173  0.00  0.00    -0.000 C 
BRANCH  67  68
ATOM     68  CD  LYS A   1       2.199  29.946  12.732  0.00  0.00    -0.024 C 
BRANCH  68  69
ATOM     69  CE  LYS A   1       2.182  30.092  11.214  0.00  0.00    -0.086 C 
BRANCH  69  70
ATOM     70  NZ  LYS A   1       2.940  31.287  10.755  0.00  0.00    +0.380 N 
ATOM     71  HZ1 LYS A   1       2.517  32.143  11.167  0.00  0.00    -0.089 HD
ATOM     72  HZ2 LYS A   1       3.931  31.206  11.061  0.00  0.00    -0.089 HD
ATOM     73  HZ3 LYS A   1       2.900  31.344   9.717  0.00  0.00    -0.089 HD
ENDBRANCH  69  70
ENDBRANCH  68  69
ENDBRANCH  67  68
ENDBRANCH  66  67
ENDBRANCH  63  66
ENDBRANCH  59  63
ENDBRANCH  58  61
BRANCH  58  74
ATOM     74  CB  MET A   2      -0.288  23.653  12.584  0.00  0.00    +0.041 C 
BRANCH  74  75
ATOM     75  CG  MET A   2      -0.992  22.968  13.738  0.00  0.00    +0.060 C 
BRANCH  75  76
ATOM     76  SD  MET A   2      -0.005  21.620  14.393  0.00  0.00    -0.139 S 
ATOM     77  CE  MET A   2      -0.517  20.277  13.324  0.00  0.00    +0.069 C 
ENDBRANCH  75  76
ENDBRANCH  74  75
ENDBRANCH  58  74
ENDBRANCH  54  58
ENDBRANCH  53  55
BRANCH  53  78
ATOM     78  CB  ILE A   3       5.031  25.466  10.877  0.00  0.00    +0.027 C 
ATOM     79  CG2 ILE A   3       4.646  26.845  11.406  0.00  0.00    +0.002 C 
BRANCH  78  80
ATOM     80  CG1 ILE A   3       5.868  24.701  11.899  0.00  0.00    +0.002 C 
ATOM     81  CD1 ILE A   3       5.239  24.612  13.260  0.00  0.00    +0.000 C 
ENDBRANCH  78  80
ENDBRANCH  53  78
ENDBRANCH  49  53
ENDBRANCH  48  51
ENDBRANCH  44  48
ENDBRANCH  43  45
ENDBRANCH   1  43
TORSDOF 36
REMARK  Name = ../refined-set-2016/4a4q/4a4q_pocket.pdb
REMARK  241 active torsions:
REMARK  status: ('A' for Active; 'I' for Inactive)
REMARK    1  A    between atoms: _1  and  _3
REMARK    2  A    between atoms: _3  and  _4
REMARK    3  A    between atoms: _3  and  _6
REMARK    4  A    between atoms: _6  and  _7
REMARK    5  A    between atoms: _7  and  _8
REMARK    6  A    between atoms: _8  and  _9
REMARK    7  A    between atoms: _18  and  _20
REMARK    8  A    between atoms: _20  and  _21
REMARK    9  A    between atoms: _20  and  _23
REMARK   10  A    between atoms: _23  and  _24
REMARK   11  A    between atoms: _27  and  _29
REMARK   12  A    between atoms: _29  and  _30
REMARK   13  A    between atoms: _29  and  _32
REMARK   14  A    between atoms: _32  and  _33
REMARK   15  A    between atoms: _36  and  _38
REMARK   16  A    between atoms: _38  and  _39
REMARK   17  A    between atoms: _38  and  _41
REMARK   18  A    between atoms: _41  and  _42
REMARK   19  A    between atoms: _45  and  _47
REMARK   20  A    between atoms: _47  and  _48
REMARK   21  A    between atoms: _47  and  _50
REMARK   22  A    between atoms: _50  and  _51
REMARK   23  A    between atoms: _54  and  _56
REMARK   24  A    between atoms: _56  and  _57
REMARK   25  A    between atoms: _59  and  _61
REMARK   26  A    between atoms: _61  and  _62
REMARK   27  A    between atoms: _65  and  _67
REMARK   28  A    between atoms: _67  and  _68
REMARK   29  A    between atoms: _67  and  _70
REMARK   30  A    between atoms: _70  and  _71
REMARK   31  A    between atoms: _74  and  _76
REMARK   32  A    between atoms: _76  and  _77
REMARK   33  A    between atoms: _76  and  _79
REMARK   34  A    between atoms: _79  and  _80
REMARK   35  A    between atoms: _83  and  _85
REMARK   36  A    between atoms: _85  and  _86
REMARK   37  A    between atoms: _85  and  _88
REMARK   38  A    between atoms: _88  and  _89
REMARK   39  A    between atoms: _92  and  _94
REMARK   40  A    between atoms: _94  and  _95
REMARK   41  A    between atoms: _94  and  _97
REMARK   42  A    between atoms: _100  and  _102
REMARK   43  A    between atoms: _102  and  _103
REMARK   44  A    between atoms: _102  and  _105
REMARK   45  A    between atoms: _105  and  _106
REMARK   46  A    between atoms: _109  and  _111
REMARK   47  A    between atoms: _111  and  _112
REMARK   48  A    between atoms: _111  and  _114
REMARK   49  A    between atoms: _114  and  _115
REMARK   50  A    between atoms: _115  and  _116
REMARK   51  A    between atoms: _119  and  _121
REMARK   52  A    between atoms: _121  and  _122
REMARK   53  A    between atoms: _121  and  _124
REMARK   54  A    between atoms: _124  and  _125
REMARK   55  A    between atoms: _125  and  _126
REMARK   56  A    between atoms: _126  and  _127
REMARK   57  A    between atoms: _127  and  _128
REMARK   58  A    between atoms: _132  and  _134
REMARK   59  A    between atoms: _134  and  _135
REMARK   60  A    between atoms: _134  and  _137
REMARK   61  A    between atoms: _137  and  _138
REMARK   62  A    between atoms: _138  and  _139
REMARK   63  A    between atoms: _141  and  _143
REMARK   64  A    between atoms: _143  and  _144
REMARK   65  A    between atoms: _143  and  _146
REMARK   66  A    between atoms: _146  and  _147
REMARK   67  A    between atoms: _150  and  _152
REMARK   68  A    between atoms: _152  and  _153
REMARK   69  A    between atoms: _155  and  _157
REMARK   70  A    between atoms: _157  and  _158
REMARK   71  A    between atoms: _160  and  _162
REMARK   72  A    between atoms: _162  and  _163
REMARK   73  A    between atoms: _162  and  _165
REMARK   74  A    between atoms: _165  and  _166
REMARK   75  A    between atoms: _169  and  _171
REMARK   76  A    between atoms: _171  and  _172
REMARK   77  A    between atoms: _174  and  _176
REMARK   78  A    between atoms: _176  and  _177
REMARK   79  A    between atoms: _179  and  _181
REMARK   80  A    between atoms: _181  and  _182
REMARK   81  A    between atoms: _181  and  _184
REMARK   82  A    between atoms: _184  and  _185
REMARK   83  A    between atoms: _191  and  _193
REMARK   84  A    between atoms: _193  and  _194
REMARK   85  A    between atoms: _193  and  _196
REMARK   86  A    between atoms: _196  and  _197
REMARK   87  A    between atoms: _200  and  _202
REMARK   88  A    between atoms: _202  and  _203
REMARK   89  A    between atoms: _202  and  _205
REMARK   90  A    between atoms: _208  and  _210
REMARK   91  A    between atoms: _210  and  _211
REMARK   92  A    between atoms: _210  and  _213
REMARK   93  A    between atoms: _213  and  _214
REMARK   94  A    between atoms: _217  and  _219
REMARK   95  A    between atoms: _219  and  _220
REMARK   96  A    between atoms: _219  and  _222
REMARK   97  A    between atoms: _222  and  _223
REMARK   98  A    between atoms: _227  and  _228
REMARK   99  A    between atoms: _233  and  _235
REMARK  100  A    between atoms: _235  and  _236
REMARK  101  A    between atoms: _235  and  _238
REMARK  102  A    between atoms: _238  and  _239
REMARK  103  A    between atoms: _242  and  _244
REMARK  104  A    between atoms: _244  and  _245
REMARK  105  A    between atoms: _244  and  _247
REMARK  106  A    between atoms: _247  and  _248
REMARK  107  A    between atoms: _253  and  _255
REMARK  108  A    between atoms: _255  and  _256
REMARK  109  A    between atoms: _255  and  _258
REMARK  110  A    between atoms: _261  and  _263
REMARK  111  A    between atoms: _263  and  _264
REMARK  112  A    between atoms: _263  and  _266
REMARK  113  A    between atoms: _266  and  _267
REMARK  114  A    between atoms: _270  and  _272
REMARK  115  A    between atoms: _272  and  _273
REMARK  116  A    between atoms: _275  and  _277
REMARK  117  A    between atoms: _277  and  _278
REMARK  118  A    between atoms: _277  and  _280
REMARK  119  A    between atoms: _280  and  _281
REMARK  120  A    between atoms: _281  and  _282
REMARK  121  A    between atoms: _282  and  _283
REMARK  122  A    between atoms: _292  and  _294
REMARK  123  A    between atoms: _294  and  _295
REMARK  124  A    between atoms: _294  and  _297
REMARK  125  A    between atoms: _297  and  _298
REMARK  126  A    between atoms: _303  and  _305
REMARK  127  A    between atoms: _305  and  _306
REMARK  128  A    between atoms: _305  and  _308
REMARK  129  A    between atoms: _308  and  _309
REMARK  130  A    between atoms: _309  and  _310
REMARK  131  A    between atoms: _310  and  _311
REMARK  132  A    between atoms: _320  and  _322
REMARK  133  A    between atoms: _322  and  _323
REMARK  134  A    between atoms: _322  and  _325
REMARK  135  A    between atoms: _325  and  _326
REMARK  136  A    between atoms: _329  and  _331
REMARK  137  A    between atoms: _331  and  _332
REMARK  138  A    between atoms: _331  and  _334
REMARK  139  A    between atoms: _334  and  _335
REMARK  140  A    between atoms: _338  and  _340
REMARK  141  A    between atoms: _340  and  _341
REMARK  142  A    between atoms: _340  and  _343
REMARK  143  A    between atoms: _343  and  _344
REMARK  144  A    between atoms: _347  and  _349
REMARK  145  A    between atoms: _349  and  _350
REMARK  146  A    between atoms: _349  and  _352
REMARK  147  A    between atoms: _352  and  _353
REMARK  148  A    between atoms: _356  and  _358
REMARK  149  A    between atoms: _358  and  _359
REMARK  150  A    between atoms: _358  and  _361
REMARK  151  A    between atoms: _361  and  _362
REMARK  152  A    between atoms: _365  and  _367
REMARK  153  A    between atoms: _367  and  _368
REMARK  154  A    between atoms: _370  and  _372
REMARK  155  A    between atoms: _372  and  _373
REMARK  156  A    between atoms: _376  and  _378
REMARK  157  A    between atoms: _378  and  _379
REMARK  158  A    between atoms: _378  and  _381
REMARK  159  A    between atoms: _381  and  _382
REMARK  160  A    between atoms: _385  and  _387
REMARK  161  A    between atoms: _387  and  _388
REMARK  162  A    between atoms: _387  and  _390
REMARK  163  A    between atoms: _390  and  _391
REMARK  164  A    between atoms: _394  and  _396
REMARK  165  A    between atoms: _396  and  _397
REMARK  166  A    between atoms: _396  and  _399
REMARK  167  A    between atoms: _399  and  _400
REMARK  168  A    between atoms: _403  and  _405
REMARK  169  A    between atoms: _405  and  _406
REMARK  170  A    between atoms: _405  and  _408
REMARK  171  A    between atoms: _411  and  _413
REMARK  172  A    between atoms: _413  and  _414
REMARK  173  A    between atoms: _413  and  _416
REMARK  174  A    between atoms: _416  and  _417
REMARK  175  A    between atoms: _417  and  _418
REMARK  176  A    between atoms: _418  and  _419
REMARK  177  A    between atoms: _419  and  _420
REMARK  178  A    between atoms: _424  and  _426
REMARK  179  A    between atoms: _426  and  _427
REMARK  180  A    between atoms: _426  and  _429
REMARK  181  A    between atoms: _429  and  _430
REMARK  182  A    between atoms: _430  and  _431
REMARK  183  A    between atoms: _433  and  _435
REMARK  184  A    between atoms: _435  and  _436
REMARK  185  A    between atoms: _435  and  _438
REMARK  186  A    between atoms: _438  and  _439
REMARK  187  A    between atoms: _442  and  _444
REMARK  188  A    between atoms: _444  and  _445
REMARK  189  A    between atoms: _447  and  _449
REMARK  190  A    between atoms: _449  and  _450
REMARK  191  A    between atoms: _452  and  _454
REMARK  192  A    between atoms: _454  and  _455
REMARK  193  A    between atoms: _454  and  _457
REMARK  194  A    between atoms: _457  and  _458
REMARK  195  A    between atoms: _461  and  _463
REMARK  196  A    between atoms: _463  and  _464
REMARK  197  A    between atoms: _466  and  _468
REMARK  198  A    between atoms: _468  and  _469
REMARK  199  A    between atoms: _471  and  _473
REMARK  200  A    between atoms: _473  and  _474
REMARK  201  A    between atoms: _473  and  _476
REMARK  202  A    between atoms: _476  and  _477
REMARK  203  A    between atoms: _483  and  _485
REMARK  204  A    between atoms: _485  and  _486
REMARK  205  A    between atoms: _485  and  _488
REMARK  206  A    between atoms: _488  and  _489
REMARK  207  A    between atoms: _492  and  _494
REMARK  208  A    between atoms: _494  and  _495
REMARK  209  A    between atoms: _494  and  _497
REMARK  210  A    between atoms: _500  and  _502
REMARK  211  A    between atoms: _502  and  _503
REMARK  212  A    between atoms: _502  and  _505
REMARK  213  A    between atoms: _505  and  _506
REMARK  214  A    between atoms: _509  and  _511
REMARK  215  A    between atoms: _511  and  _512
REMARK  216  A    between atoms: _511  and  _514
REMARK  217  A    between atoms: _514  and  _515
REMARK  218  A    between atoms: _519  and  _520
REMARK  219  A    between atoms: _525  and  _527
REMARK  220  A    between atoms: _527  and  _528
REMARK  221  A    between atoms: _527  and  _530
REMARK  222  A    between atoms: _530  and  _531
REMARK  223  A    between atoms: _534  and  _536
REMARK  224  A    between atoms: _536  and  _537
REMARK  225  A    between atoms: _536  and  _539
REMARK  226  A    between atoms: _539  and  _540
REMARK  227  A    between atoms: _545  and  _547
REMARK  228  A    between atoms: _547  and  _548
REMARK  229  A    between atoms: _547  and  _550
REMARK  230  A    between atoms: _553  and  _555
REMARK  231  A    between atoms: _555  and  _556
REMARK  232  A    between atoms: _555  and  _558
REMARK  233  A    between atoms: _558  and  _559
REMARK  234  A    between atoms: _562  and  _564
REMARK  235  A    between atoms: _564  and  _565
REMARK  236  A    between atoms: _567  and  _569
REMARK  237  A    between atoms: _569  and  _570
REMARK  238  A    between atoms: _569  and  _572
REMARK  239  A    between atoms: _572  and  _573
REMARK  240  A    between atoms: _573  and  _574
REMARK  241  A    between atoms: _574  and  _575
REMARK                            x       y       z     vdW  Elec       q    Type
REMARK                         _______ _______ _______ _____ _____    ______ ____
ROOT
ATOM      1  CA  VAL A   1       4.594  25.727  17.883  0.00  0.00    +0.133 C 
ENDROOT
BRANCH   1   2
ATOM      2  CB  VAL A   1       5.591  26.285  16.842  0.00  0.00    +0.023 C 
ATOM      3  CG2 VAL A   1       6.419  25.153  16.248  0.00  0.00    +0.002 C 
ATOM      4  CG1 VAL A   1       4.832  27.026  15.748  0.00  0.00    +0.002 C 
ENDBRANCH   1   2
BRANCH   1   5
ATOM      5  N   VAL A   1       3.652  24.803  17.270  0.00  0.00    -0.239 NA
ATOM      6  H   VAL A   1       2.874  25.179  16.691  0.00  0.00    +0.142 HD
ENDBRANCH   1   5
BRANCH   1   7
ATOM      7  C   VAL A   1       3.851  26.900  18.512  0.00  0.00    +0.224 C 
ATOM      8  O   VAL A   1       2.649  27.088  18.281  0.00  0.00    -0.287 OA
ENDBRANCH   1   7
TORSDOF 3
REMARK  Name = ../refined-set-2016/4a4q/4a4q_pocket.pdb
REMARK  241 active torsions:
REMARK  status: ('A' for Active; 'I' for Inactive)
REMARK    1  A    between atoms: _1  and  _3
REMARK    2  A    between atoms: _3  and  _4
REMARK    3  A    between atoms: _3  and  _6
REMARK    4  A    between atoms: _6  and  _7
REMARK    5  A    between atoms: _7  and  _8
REMARK    6  A    between atoms: _8  and  _9
REMARK    7  A    between atoms: _18  and  _20
REMARK    8  A    between atoms: _20  and  _21
REMARK    9  A    between atoms: _20  and  _23
REMARK   10  A    between atoms: _23  and  _24
REMARK   11  A    between atoms: _27  and  _29
REMARK   12  A    between atoms: _29  and  _30
REMARK   13  A    between atoms: _29  and  _32
REMARK   14  A    between atoms: _32  and  _33
REMARK   15  A    between atoms: _36  and  _38
REMARK   16  A    between atoms: _38  and  _39
REMARK   17  A    between atoms: _38  and  _41
REMARK   18  A    between atoms: _41  and  _42
REMARK   19  A    between atoms: _45  and  _47
REMARK   20  A    between atoms: _47  and  _48
REMARK   21  A    between atoms: _47  and  _50
REMARK   22  A    between atoms: _50  and  _51
REMARK   23  A    between atoms: _54  and  _56
REMARK   24  A    between atoms: _56  and  _57
REMARK   25  A    between atoms: _59  and  _61
REMARK   26  A    between atoms: _61  and  _62
REMARK   27  A    between atoms: _65  and  _67
REMARK   28  A    between atoms: _67  and  _68
REMARK   29  A    between atoms: _67  and  _70
REMARK   30  A    between atoms: _70  and  _71
REMARK   31  A    between atoms: _74  and  _76
REMARK   32  A    between atoms: _76  and  _77
REMARK   33  A    between atoms: _76  and  _79
REMARK   34  A    between atoms: _79  and  _80
REMARK   35  A    between atoms: _83  and  _85
REMARK   36  A    between atoms: _85  and  _86
REMARK   37  A    between atoms: _85  and  _88
REMARK   38  A    between atoms: _88  and  _89
REMARK   39  A    between atoms: _92  and  _94
REMARK   40  A    between atoms: _94  and  _95
REMARK   41  A    between atoms: _94  and  _97
REMARK   42  A    between atoms: _100  and  _102
REMARK   43  A    between atoms: _102  and  _103
REMARK   44  A    between atoms: _102  and  _105
REMARK   45  A    between atoms: _105  and  _106
REMARK   46  A    between atoms: _109  and  _111
REMARK   47  A    between atoms: _111  and  _112
REMARK   48  A    between atoms: _111  and  _114
REMARK   49  A    between atoms: _114  and  _115
REMARK   50  A    between atoms: _115  and  _116
REMARK   51  A    between atoms: _119  and  _121
REMARK   52  A    between atoms: _121  and  _122
REMARK   53  A    between atoms: _121  and  _124
REMARK   54  A    between atoms: _124  and  _125
REMARK   55  A    between atoms: _125  and  _126
REMARK   56  A    between atoms: _126  and  _127
REMARK   57  A    between atoms: _127  and  _128
REMARK   58  A    between atoms: _132  and  _134
REMARK   59  A    between atoms: _134  and  _135
REMARK   60  A    between atoms: _134  and  _137
REMARK   61  A    between atoms: _137  and  _138
REMARK   62  A    between atoms: _138  and  _139
REMARK   63  A    between atoms: _141  and  _143
REMARK   64  A    between atoms: _143  and  _144
REMARK   65  A    between atoms: _143  and  _146
REMARK   66  A    between atoms: _146  and  _147
REMARK   67  A    between atoms: _150  and  _152
REMARK   68  A    between atoms: _152  and  _153
REMARK   69  A    between atoms: _155  and  _157
REMARK   70  A    between atoms: _157  and  _158
REMARK   71  A    between atoms: _160  and  _162
REMARK   72  A    between atoms: _162  and  _163
REMARK   73  A    between atoms: _162  and  _165
REMARK   74  A    between atoms: _165  and  _166
REMARK   75  A    between atoms: _169  and  _171
REMARK   76  A    between atoms: _171  and  _172
REMARK   77  A    between atoms: _174  and  _176
REMARK   78  A    between atoms: _176  and  _177
REMARK   79  A    between atoms: _179  and  _181
REMARK   80  A    between atoms: _181  and  _182
REMARK   81  A    between atoms: _181  and  _184
REMARK   82  A    between atoms: _184  and  _185
REMARK   83  A    between atoms: _191  and  _193
REMARK   84  A    between atoms: _193  and  _194
REMARK   85  A    between atoms: _193  and  _196
REMARK   86  A    between atoms: _196  and  _197
REMARK   87  A    between atoms: _200  and  _202
REMARK   88  A    between atoms: _202  and  _203
REMARK   89  A    between atoms: _202  and  _205
REMARK   90  A    between atoms: _208  and  _210
REMARK   91  A    between atoms: _210  and  _211
REMARK   92  A    between atoms: _210  and  _213
REMARK   93  A    between atoms: _213  and  _214
REMARK   94  A    between atoms: _217  and  _219
REMARK   95  A    between atoms: _219  and  _220
REMARK   96  A    between atoms: _219  and  _222
REMARK   97  A    between atoms: _222  and  _223
REMARK   98  A    between atoms: _227  and  _228
REMARK   99  A    between atoms: _233  and  _235
REMARK  100  A    between atoms: _235  and  _236
REMARK  101  A    between atoms: _235  and  _238
REMARK  102  A    between atoms: _238  and  _239
REMARK  103  A    between atoms: _242  and  _244
REMARK  104  A    between atoms: _244  and  _245
REMARK  105  A    between atoms: _244  and  _247
REMARK  106  A    between atoms: _247  and  _248
REMARK  107  A    between atoms: _253  and  _255
REMARK  108  A    between atoms: _255  and  _256
REMARK  109  A    between atoms: _255  and  _258
REMARK  110  A    between atoms: _261  and  _263
REMARK  111  A    between atoms: _263  and  _264
REMARK  112  A    between atoms: _263  and  _266
REMARK  113  A    between atoms: _266  and  _267
REMARK  114  A    between atoms: _270  and  _272
REMARK  115  A    between atoms: _272  and  _273
REMARK  116  A    between atoms: _275  and  _277
REMARK  117  A    between atoms: _277  and  _278
REMARK  118  A    between atoms: _277  and  _280
REMARK  119  A    between atoms: _280  and  _281
REMARK  120  A    between atoms: _281  and  _282
REMARK  121  A    between atoms: _282  and  _283
REMARK  122  A    between atoms: _292  and  _294
REMARK  123  A    between atoms: _294  and  _295
REMARK  124  A    between atoms: _294  and  _297
REMARK  125  A    between atoms: _297  and  _298
REMARK  126  A    between atoms: _303  and  _305
REMARK  127  A    between atoms: _305  and  _306
REMARK  128  A    between atoms: _305  and  _308
REMARK  129  A    between atoms: _308  and  _309
REMARK  130  A    between atoms: _309  and  _310
REMARK  131  A    between atoms: _310  and  _311
REMARK  132  A    between atoms: _320  and  _322
REMARK  133  A    between atoms: _322  and  _323
REMARK  134  A    between atoms: _322  and  _325
REMARK  135  A    between atoms: _325  and  _326
REMARK  136  A    between atoms: _329  and  _331
REMARK  137  A    between atoms: _331  and  _332
REMARK  138  A    between atoms: _331  and  _334
REMARK  139  A    between atoms: _334  and  _335
REMARK  140  A    between atoms: _338  and  _340
REMARK  141  A    between atoms: _340  and  _341
REMARK  142  A    between atoms: _340  and  _343
REMARK  143  A    between atoms: _343  and  _344
REMARK  144  A    between atoms: _347  and  _349
REMARK  145  A    between atoms: _349  and  _350
REMARK  146  A    between atoms: _349  and  _352
REMARK  147  A    between atoms: _352  and  _353
REMARK  148  A    between atoms: _356  and  _358
REMARK  149  A    between atoms: _358  and  _359
REMARK  150  A    between atoms: _358  and  _361
REMARK  151  A    between atoms: _361  and  _362
REMARK  152  A    between atoms: _365  and  _367
REMARK  153  A    between atoms: _367  and  _368
REMARK  154  A    between atoms: _370  and  _372
REMARK  155  A    between atoms: _372  and  _373
REMARK  156  A    between atoms: _376  and  _378
REMARK  157  A    between atoms: _378  and  _379
REMARK  158  A    between atoms: _378  and  _381
REMARK  159  A    between atoms: _381  and  _382
REMARK  160  A    between atoms: _385  and  _387
REMARK  161  A    between atoms: _387  and  _388
REMARK  162  A    between atoms: _387  and  _390
REMARK  163  A    between atoms: _390  and  _391
REMARK  164  A    between atoms: _394  and  _396
REMARK  165  A    between atoms: _396  and  _397
REMARK  166  A    between atoms: _396  and  _399
REMARK  167  A    between atoms: _399  and  _400
REMARK  168  A    between atoms: _403  and  _405
REMARK  169  A    between atoms: _405  and  _406
REMARK  170  A    between atoms: _405  and  _408
REMARK  171  A    between atoms: _411  and  _413
REMARK  172  A    between atoms: _413  and  _414
REMARK  173  A    between atoms: _413  and  _416
REMARK  174  A    between atoms: _416  and  _417
REMARK  175  A    between atoms: _417  and  _418
REMARK  176  A    between atoms: _418  and  _419
REMARK  177  A    between atoms: _419  and  _420
REMARK  178  A    between atoms: _424  and  _426
REMARK  179  A    between atoms: _426  and  _427
REMARK  180  A    between atoms: _426  and  _429
REMARK  181  A    between atoms: _429  and  _430
REMARK  182  A    between atoms: _430  and  _431
REMARK  183  A    between atoms: _433  and  _435
REMARK  184  A    between atoms: _435  and  _436
REMARK  185  A    between atoms: _435  and  _438
REMARK  186  A    between atoms: _438  and  _439
REMARK  187  A    between atoms: _442  and  _444
REMARK  188  A    between atoms: _444  and  _445
REMARK  189  A    between atoms: _447  and  _449
REMARK  190  A    between atoms: _449  and  _450
REMARK  191  A    between atoms: _452  and  _454
REMARK  192  A    between atoms: _454  and  _455
REMARK  193  A    between atoms: _454  and  _457
REMARK  194  A    between atoms: _457  and  _458
REMARK  195  A    between atoms: _461  and  _463
REMARK  196  A    between atoms: _463  and  _464
REMARK  197  A    between atoms: _466  and  _468
REMARK  198  A    between atoms: _468  and  _469
REMARK  199  A    between atoms: _471  and  _473
REMARK  200  A    between atoms: _473  and  _474
REMARK  201  A    between atoms: _473  and  _476
REMARK  202  A    between atoms: _476  and  _477
REMARK  203  A    between atoms: _483  and  _485
REMARK  204  A    between atoms: _485  and  _486
REMARK  205  A    between atoms: _485  and  _488
REMARK  206  A    between atoms: _488  and  _489
REMARK  207  A    between atoms: _492  and  _494
REMARK  208  A    between atoms: _494  and  _495
REMARK  209  A    between atoms: _494  and  _497
REMARK  210  A    between atoms: _500  and  _502
REMARK  211  A    between atoms: _502  and  _503
REMARK  212  A    between atoms: _502  and  _505
REMARK  213  A    between atoms: _505  and  _506
REMARK  214  A    between atoms: _509  and  _511
REMARK  215  A    between atoms: _511  and  _512
REMARK  216  A    between atoms: _511  and  _514
REMARK  217  A    between atoms: _514  and  _515
REMARK  218  A    between atoms: _519  and  _520
REMARK  219  A    between atoms: _525  and  _527
REMARK  220  A    between atoms: _527  and  _528
REMARK  221  A    between atoms: _527  and  _530
REMARK  222  A    between atoms: _530  and  _531
REMARK  223  A    between atoms: _534  and  _536
REMARK  224  A    between atoms: _536  and  _537
REMARK  225  A    between atoms: _536  and  _539
REMARK  226  A    between atoms: _539  and  _540
REMARK  227  A    between atoms: _545  and  _547
REMARK  228  A    between atoms: _547  and  _548
REMARK  229  A    between atoms: _547  and  _550
REMARK  230  A    between atoms: _553  and  _555
REMARK  231  A    between atoms: _555  and  _556
REMARK  232  A    between atoms: _555  and  _558
REMARK  233  A    between atoms: _558  and  _559
REMARK  234  A    between atoms: _562  and  _564
REMARK  235  A    between atoms: _564  and  _565
REMARK  236  A    between atoms: _567  and  _569
REMARK  237  A    between atoms: _569  and  _570
REMARK  238  A    between atoms: _569  and  _572
REMARK  239  A    between atoms: _572  and  _573
REMARK  240  A    between atoms: _573  and  _574
REMARK  241  A    between atoms: _574  and  _575
REMARK                            x       y       z     vdW  Elec       q    Type
REMARK                         _______ _______ _______ _____ _____    ______ ____
ROOT
ATOM      1  CA  LEU A   1       8.056  30.426  16.597  0.00  0.00    +0.133 C 
ENDROOT
BRANCH   1   2
ATOM      2  N   LEU A   1       8.869  31.585  16.261  0.00  0.00    -0.239 NA
ATOM      3  H   LEU A   1       9.568  31.513  15.494  0.00  0.00    +0.142 HD
ENDBRANCH   1   2
BRANCH   1   4
ATOM      4  C   LEU A   1       8.910  29.525  17.482  0.00  0.00    +0.224 C 
ATOM      5  O   LEU A   1      10.100  29.363  17.238  0.00  0.00    -0.287 OA
ENDBRANCH   1   4
BRANCH   1   6
ATOM      6  CB  LEU A   1       7.634  29.678  15.324  0.00  0.00    +0.025 C 
BRANCH   6   7
ATOM      7  CG  LEU A   1       6.946  30.513  14.233  0.00  0.00    +0.002 C 
ATOM      8  CD2 LEU A   1       5.723  31.212  14.817  0.00  0.00    +0.000 C 
ATOM      9  CD1 LEU A   1       6.537  29.616  13.069  0.00  0.00    +0.000 C 
ENDBRANCH   6   7
ENDBRANCH   1   6
TORSDOF 4
REMARK  Name = ../refined-set-2016/4a4q/4a4q_pocket.pdb
REMARK  241 active torsions:
REMARK  status: ('A' for Active; 'I' for Inactive)
REMARK    1  A    between atoms: _1  and  _3
REMARK    2  A    between atoms: _3  and  _4
REMARK    3  A    between atoms: _3  and  _6
REMARK    4  A    between atoms: _6  and  _7
REMARK    5  A    between atoms: _7  and  _8
REMARK    6  A    between atoms: _8  and  _9
REMARK    7  A    between atoms: _18  and  _20
REMARK    8  A    between atoms: _20  and  _21
REMARK    9  A    between atoms: _20  and  _23
REMARK   10  A    between atoms: _23  and  _24
REMARK   11  A    between atoms: _27  and  _29
REMARK   12  A    between atoms: _29  and  _30
REMARK   13  A    between atoms: _29  and  _32
REMARK   14  A    between atoms: _32  and  _33
REMARK   15  A    between atoms: _36  and  _38
REMARK   16  A    between atoms: _38  and  _39
REMARK   17  A    between atoms: _38  and  _41
REMARK   18  A    between atoms: _41  and  _42
REMARK   19  A    between atoms: _45  and  _47
REMARK   20  A    between atoms: _47  and  _48
REMARK   21  A    between atoms: _47  and  _50
REMARK   22  A    between atoms: _50  and  _51
REMARK   23  A    between atoms: _54  and  _56
REMARK   24  A    between atoms: _56  and  _57
REMARK   25  A    between atoms: _59  and  _61
REMARK   26  A    between atoms: _61  and  _62
REMARK   27  A    between atoms: _65  and  _67
REMARK   28  A    between atoms: _67  and  _68
REMARK   29  A    between atoms: _67  and  _70
REMARK   30  A    between atoms: _70  and  _71
REMARK   31  A    between atoms: _74  and  _76
REMARK   32  A    between atoms: _76  and  _77
REMARK   33  A    between atoms: _76  and  _79
REMARK   34  A    between atoms: _79  and  _80
REMARK   35  A    between atoms: _83  and  _85
REMARK   36  A    between atoms: _85  and  _86
REMARK   37  A    between atoms: _85  and  _88
REMARK   38  A    between atoms: _88  and  _89
REMARK   39  A    between atoms: _92  and  _94
REMARK   40  A    between atoms: _94  and  _95
REMARK   41  A    between atoms: _94  and  _97
REMARK   42  A    between atoms: _100  and  _102
REMARK   43  A    between atoms: _102  and  _103
REMARK   44  A    between atoms: _102  and  _105
REMARK   45  A    between atoms: _105  and  _106
REMARK   46  A    between atoms: _109  and  _111
REMARK   47  A    between atoms: _111  and  _112
REMARK   48  A    between atoms: _111  and  _114
REMARK   49  A    between atoms: _114  and  _115
REMARK   50  A    between atoms: _115  and  _116
REMARK   51  A    between atoms: _119  and  _121
REMARK   52  A    between atoms: _121  and  _122
REMARK   53  A    between atoms: _121  and  _124
REMARK   54  A    between atoms: _124  and  _125
REMARK   55  A    between atoms: _125  and  _126
REMARK   56  A    between atoms: _126  and  _127
REMARK   57  A    between atoms: _127  and  _128
REMARK   58  A    between atoms: _132  and  _134
REMARK   59  A    between atoms: _134  and  _135
REMARK   60  A    between atoms: _134  and  _137
REMARK   61  A    between atoms: _137  and  _138
REMARK   62  A    between atoms: _138  and  _139
REMARK   63  A    between atoms: _141  and  _143
REMARK   64  A    between atoms: _143  and  _144
REMARK   65  A    between atoms: _143  and  _146
REMARK   66  A    between atoms: _146  and  _147
REMARK   67  A    between atoms: _150  and  _152
REMARK   68  A    between atoms: _152  and  _153
REMARK   69  A    between atoms: _155  and  _157
REMARK   70  A    between atoms: _157  and  _158
REMARK   71  A    between atoms: _160  and  _162
REMARK   72  A    between atoms: _162  and  _163
REMARK   73  A    between atoms: _162  and  _165
REMARK   74  A    between atoms: _165  and  _166
REMARK   75  A    between atoms: _169  and  _171
REMARK   76  A    between atoms: _171  and  _172
REMARK   77  A    between atoms: _174  and  _176
REMARK   78  A    between atoms: _176  and  _177
REMARK   79  A    between atoms: _179  and  _181
REMARK   80  A    between atoms: _181  and  _182
REMARK   81  A    between atoms: _181  and  _184
REMARK   82  A    between atoms: _184  and  _185
REMARK   83  A    between atoms: _191  and  _193
REMARK   84  A    between atoms: _193  and  _194
REMARK   85  A    between atoms: _193  and  _196
REMARK   86  A    between atoms: _196  and  _197
REMARK   87  A    between atoms: _200  and  _202
REMARK   88  A    between atoms: _202  and  _203
REMARK   89  A    between atoms: _202  and  _205
REMARK   90  A    between atoms: _208  and  _210
REMARK   91  A    between atoms: _210  and  _211
REMARK   92  A    between atoms: _210  and  _213
REMARK   93  A    between atoms: _213  and  _214
REMARK   94  A    between atoms: _217  and  _219
REMARK   95  A    between atoms: _219  and  _220
REMARK   96  A    between atoms: _219  and  _222
REMARK   97  A    between atoms: _222  and  _223
REMARK   98  A    between atoms: _227  and  _228
REMARK   99  A    between atoms: _233  and  _235
REMARK  100  A    between atoms: _235  and  _236
REMARK  101  A    between atoms: _235  and  _238
REMARK  102  A    between atoms: _238  and  _239
REMARK  103  A    between atoms: _242  and  _244
REMARK  104  A    between atoms: _244  and  _245
REMARK  105  A    between atoms: _244  and  _247
REMARK  106  A    between atoms: _247  and  _248
REMARK  107  A    between atoms: _253  and  _255
REMARK  108  A    between atoms: _255  and  _256
REMARK  109  A    between atoms: _255  and  _258
REMARK  110  A    between atoms: _261  and  _263
REMARK  111  A    between atoms: _263  and  _264
REMARK  112  A    between atoms: _263  and  _266
REMARK  113  A    between atoms: _266  and  _267
REMARK  114  A    between atoms: _270  and  _272
REMARK  115  A    between atoms: _272  and  _273
REMARK  116  A    between atoms: _275  and  _277
REMARK  117  A    between atoms: _277  and  _278
REMARK  118  A    between atoms: _277  and  _280
REMARK  119  A    between atoms: _280  and  _281
REMARK  120  A    between atoms: _281  and  _282
REMARK  121  A    between atoms: _282  and  _283
REMARK  122  A    between atoms: _292  and  _294
REMARK  123  A    between atoms: _294  and  _295
REMARK  124  A    between atoms: _294  and  _297
REMARK  125  A    between atoms: _297  and  _298
REMARK  126  A    between atoms: _303  and  _305
REMARK  127  A    between atoms: _305  and  _306
REMARK  128  A    between atoms: _305  and  _308
REMARK  129  A    between atoms: _308  and  _309
REMARK  130  A    between atoms: _309  and  _310
REMARK  131  A    between atoms: _310  and  _311
REMARK  132  A    between atoms: _320  and  _322
REMARK  133  A    between atoms: _322  and  _323
REMARK  134  A    between atoms: _322  and  _325
REMARK  135  A    between atoms: _325  and  _326
REMARK  136  A    between atoms: _329  and  _331
REMARK  137  A    between atoms: _331  and  _332
REMARK  138  A    between atoms: _331  and  _334
REMARK  139  A    between atoms: _334  and  _335
REMARK  140  A    between atoms: _338  and  _340
REMARK  141  A    between atoms: _340  and  _341
REMARK  142  A    between atoms: _340  and  _343
REMARK  143  A    between atoms: _343  and  _344
REMARK  144  A    between atoms: _347  and  _349
REMARK  145  A    between atoms: _349  and  _350
REMARK  146  A    between atoms: _349  and  _352
REMARK  147  A    between atoms: _352  and  _353
REMARK  148  A    between atoms: _356  and  _358
REMARK  149  A    between atoms: _358  and  _359
REMARK  150  A    between atoms: _358  and  _361
REMARK  151  A    between atoms: _361  and  _362
REMARK  152  A    between atoms: _365  and  _367
REMARK  153  A    between atoms: _367  and  _368
REMARK  154  A    between atoms: _370  and  _372
REMARK  155  A    between atoms: _372  and  _373
REMARK  156  A    between atoms: _376  and  _378
REMARK  157  A    between atoms: _378  and  _379
REMARK  158  A    between atoms: _378  and  _381
REMARK  159  A    between atoms: _381  and  _382
REMARK  160  A    between atoms: _385  and  _387
REMARK  161  A    between atoms: _387  and  _388
REMARK  162  A    between atoms: _387  and  _390
REMARK  163  A    between atoms: _390  and  _391
REMARK  164  A    between atoms: _394  and  _396
REMARK  165  A    between atoms: _396  and  _397
REMARK  166  A    between atoms: _396  and  _399
REMARK  167  A    between atoms: _399  and  _400
REMARK  168  A    between atoms: _403  and  _405
REMARK  169  A    between atoms: _405  and  _406
REMARK  170  A    between atoms: _405  and  _408
REMARK  171  A    between atoms: _411  and  _413
REMARK  172  A    between atoms: _413  and  _414
REMARK  173  A    between atoms: _413  and  _416
REMARK  174  A    between atoms: _416  and  _417
REMARK  175  A    between atoms: _417  and  _418
REMARK  176  A    between atoms: _418  and  _419
REMARK  177  A    between atoms: _419  and  _420
REMARK  178  A    between atoms: _424  and  _426
REMARK  179  A    between atoms: _426  and  _427
REMARK  180  A    between atoms: _426  and  _429
REMARK  181  A    between atoms: _429  and  _430
REMARK  182  A    between atoms: _430  and  _431
REMARK  183  A    between atoms: _433  and  _435
REMARK  184  A    between atoms: _435  and  _436
REMARK  185  A    between atoms: _435  and  _438
REMARK  186  A    between atoms: _438  and  _439
REMARK  187  A    between atoms: _442  and  _444
REMARK  188  A    between atoms: _444  and  _445
REMARK  189  A    between atoms: _447  and  _449
REMARK  190  A    between atoms: _449  and  _450
REMARK  191  A    between atoms: _452  and  _454
REMARK  192  A    between atoms: _454  and  _455
REMARK  193  A    between atoms: _454  and  _457
REMARK  194  A    between atoms: _457  and  _458
REMARK  195  A    between atoms: _461  and  _463
REMARK  196  A    between atoms: _463  and  _464
REMARK  197  A    between atoms: _466  and  _468
REMARK  198  A    between atoms: _468  and  _469
REMARK  199  A    between atoms: _471  and  _473
REMARK  200  A    between atoms: _473  and  _474
REMARK  201  A    between atoms: _473  and  _476
REMARK  202  A    between atoms: _476  and  _477
REMARK  203  A    between atoms: _483  and  _485
REMARK  204  A    between atoms: _485  and  _486
REMARK  205  A    between atoms: _485  and  _488
REMARK  206  A    between atoms: _488  and  _489
REMARK  207  A    between atoms: _492  and  _494
REMARK  208  A    between atoms: _494  and  _495
REMARK  209  A    between atoms: _494  and  _497
REMARK  210  A    between atoms: _500  and  _502
REMARK  211  A    between atoms: _502  and  _503
REMARK  212  A    between atoms: _502  and  _505
REMARK  213  A    between atoms: _505  and  _506
REMARK  214  A    between atoms: _509  and  _511
REMARK  215  A    between atoms: _511  and  _512
REMARK  216  A    between atoms: _511  and  _514
REMARK  217  A    between atoms: _514  and  _515
REMARK  218  A    between atoms: _519  and  _520
REMARK  219  A    between atoms: _525  and  _527
REMARK  220  A    between atoms: _527  and  _528
REMARK  221  A    between atoms: _527  and  _530
REMARK  222  A    between atoms: _530  and  _531
REMARK  223  A    between atoms: _534  and  _536
REMARK  224  A    between atoms: _536  and  _537
REMARK  225  A    between atoms: _536  and  _539
REMARK  226  A    between atoms: _539  and  _540
REMARK  227  A    between atoms: _545  and  _547
REMARK  228  A    between atoms: _547  and  _548
REMARK  229  A    between atoms: _547  and  _550
REMARK  230  A    between atoms: _553  and  _555
REMARK  231  A    between atoms: _555  and  _556
REMARK  232  A    between atoms: _555  and  _558
REMARK  233  A    between atoms: _558  and  _559
REMARK  234  A    between atoms: _562  and  _564
REMARK  235  A    between atoms: _564  and  _565
REMARK  236  A    between atoms: _567  and  _569
REMARK  237  A    between atoms: _569  and  _570
REMARK  238  A    between atoms: _569  and  _572
REMARK  239  A    between atoms: _572  and  _573
REMARK  240  A    between atoms: _573  and  _574
REMARK  241  A    between atoms: _574  and  _575
REMARK                            x       y       z     vdW  Elec       q    Type
REMARK                         _______ _______ _______ _____ _____    ______ ____
ROOT
ATOM      1  C   VAL A   5      15.667  29.504  11.656  0.00  0.00    +0.241 C 
ATOM      2  O   VAL A   5      14.719  29.924  12.318  0.00  0.00    -0.273 OA
ATOM      3  N   ILE A   6      16.440  30.293  10.914  0.00  0.00    -0.297 N 
ATOM      4  H   ILE A   6      17.259  29.881  10.423  0.00  0.00    +0.150 HD
ENDROOT
BRANCH   3   5
ATOM      5  CA  ILE A   6      16.170  31.721  10.770  0.00  0.00    +0.149 C 
BRANCH   5   6
ATOM      6  C   ILE A   6      15.489  31.864   9.408  0.00  0.00    +0.241 C 
ATOM      7  N   GLY A   7      14.218  32.258   9.420  0.00  0.00    -0.295 N 
ATOM      8  H   GLY A   7      13.758  32.474  10.328  0.00  0.00    +0.150 HD
ATOM      9  O   ILE A   6      16.107  31.614   8.370  0.00  0.00    -0.273 OA
BRANCH   7  10
ATOM     10  CA  GLY A   7      13.461  32.392   8.187  0.00  0.00    +0.176 C 
BRANCH  10  11
ATOM     11  C   GLY A   7      13.467  33.757   7.526  0.00  0.00    +0.243 C 
ATOM     12  O   GLY A   7      14.041  34.711   8.046  0.00  0.00    -0.273 OA
ATOM     13  N   ARG A   8      12.811  33.848   6.373  0.00  0.00    -0.297 N 
ATOM     14  H   ARG A   8      12.326  33.008   5.998  0.00  0.00    +0.150 HD
BRANCH  13  15
ATOM     15  CA  ARG A   8      12.754  35.098   5.619  0.00  0.00    +0.149 C 
BRANCH  15  16
ATOM     16  C   ARG A   8      12.236  36.303   6.402  0.00  0.00    +0.241 C 
ATOM     17  N   ASN A   9      11.344  36.083   7.362  0.00  0.00    -0.298 N 
ATOM     18  H   ASN A   9      11.036  35.113   7.576  0.00  0.00    +0.150 HD
ATOM     19  O   ARG A   8      12.654  37.429   6.143  0.00  0.00    -0.273 OA
BRANCH  17  20
ATOM     20  CA  ASN A   9      10.796  37.211   8.117  0.00  0.00    +0.146 C 
BRANCH  20  21
ATOM     21  C   ASN A   9      11.868  38.012   8.852  0.00  0.00    +0.227 C 
ATOM     22  O   ASN A   9      11.674  39.192   9.143  0.00  0.00    -0.286 OA
ENDBRANCH  20  21
BRANCH  20  23
ATOM     23  CB  ASN A   9       9.710  36.737   9.091  0.00  0.00    +0.112 C 
BRANCH  23  24
ATOM     24  CG  ASN A   9      10.275  36.023  10.294  0.00  0.00    +0.222 C 
ATOM     25  ND2 ASN A   9       9.955  36.527  11.487  0.00  0.00    -0.329 N 
ATOM     26 HD21 ASN A   9      10.312  36.077  12.354  0.00  0.00    +0.145 HD
ATOM     27 HD22 ASN A   9       9.349  37.370  11.550  0.00  0.00    +0.145 HD
ATOM     28  OD1 ASN A   9      10.988  35.029  10.160  0.00  0.00    -0.275 OA
ENDBRANCH  23  24
ENDBRANCH  20  23
ENDBRANCH  17  20
ENDBRANCH  15  16
BRANCH  15  29
ATOM     29  CB  ARG A   8      11.904  34.924   4.349  0.00  0.00    +0.033 C 
BRANCH  29  30
ATOM     30  CG  ARG A   8      12.489  33.960   3.320  0.00  0.00    +0.045 C 
BRANCH  30  31
ATOM     31  CD  ARG A   8      11.691  33.956   2.007  0.00  0.00    +0.174 C 
BRANCH  31  32
ATOM     32  NE  ARG A   8      10.305  33.521   2.191  0.00  0.00    -0.265 N 
ATOM     33  HE  ARG A   8      10.131  32.501   2.293  0.00  0.00    +0.259 HD
ATOM     34  CZ  ARG A   8       9.251  34.334   2.237  0.00  0.00    +0.342 C 
ATOM     35  NH2 ARG A   8       8.037  33.835   2.433  0.00  0.00    -0.292 N 
ATOM     36 HH21 ARG A   8       7.909  32.810   2.551  0.00  0.00    +0.255 HD
ATOM     37 HH22 ARG A   8       7.214  34.469   2.469  0.00  0.00    +0.255 HD
ATOM     38  NH1 ARG A   8       9.401  35.645   2.106  0.00  0.00    -0.292 N 
ATOM     39 HH11 ARG A   8       8.570  36.270   2.144  0.00  0.00    +0.255 HD
ATOM     40 HH12 ARG A   8      10.349  36.048   1.966  0.00  0.00    +0.255 HD
ENDBRANCH  31  32
ENDBRANCH  30  31
ENDBRANCH  29  30
ENDBRANCH  15  29
ENDBRANCH  13  15
ENDBRANCH  10  11
ENDBRANCH   7  10
ENDBRANCH   5   6
BRANCH   5  41
ATOM     41  CB  ILE A   6      17.464  32.549  10.777  0.00  0.00    +0.027 C 
ATOM     42  CG2 ILE A   6      17.145  34.013  10.498  0.00  0.00    +0.002 C 
BRANCH  41  43
ATOM     43  CG1 ILE A   6      18.156  32.409  12.129  0.00  0.00    +0.002 C 
ATOM     44  CD1 ILE A   6      19.523  33.052  12.181  0.00  0.00    +0.000 C 
ENDBRANCH  41  43
ENDBRANCH   5  41
ENDBRANCH   3   5
BRANCH   1  45
ATOM     45  CA  VAL A   5      16.028  28.026  11.663  0.00  0.00    +0.149 C 
BRANCH  45  47
ATOM     46  C   ASN A   4      17.118  26.766  13.430  0.00  0.00    +0.241 C 
ATOM     47  N   VAL A   5      16.063  27.445  12.997  0.00  0.00    -0.297 N 
ATOM     48  H   VAL A   5      15.243  27.565  13.625  0.00  0.00    +0.150 HD
ATOM     49  O   ASN A   4      18.138  26.626  12.765  0.00  0.00    -0.273 OA
BRANCH  46  50
ATOM     50  CA  ASN A   4      17.018  26.184  14.836  0.00  0.00    +0.158 C 
BRANCH  50  52
ATOM     51  C   THR A   3      16.575  23.850  14.335  0.00  0.00    +0.243 C 
ATOM     52  N   ASN A   4      17.394  24.771  14.836  0.00  0.00    -0.297 N 
ATOM     53  H   ASN A   4      18.312  24.483  15.232  0.00  0.00    +0.150 HD
ATOM     54  O   THR A   3      15.478  24.130  13.854  0.00  0.00    -0.273 OA
BRANCH  51  55
ATOM     55  CA  THR A   3      17.054  22.400  14.386  0.00  0.00    +0.176 C 
BRANCH  55  58
ATOM     56  C   PRO A   2      16.062  20.254  14.935  0.00  0.00    +0.241 C 
ATOM     57  O   PRO A   2      17.142  19.821  15.332  0.00  0.00    -0.273 OA
ATOM     58  N   THR A   3      15.920  21.481  14.441  0.00  0.00    -0.295 N 
ATOM     59  H   THR A   3      14.991  21.789  14.090  0.00  0.00    +0.150 HD
BRANCH  56  63
ATOM     60  C   THR A   1      13.202  21.022  15.784  0.00  0.00    +0.244 C 
ATOM     61  O   THR A   1      13.890  21.223  16.786  0.00  0.00    -0.273 OA
ATOM     62  N   PRO A   2      13.557  20.128  14.849  0.00  0.00    -0.272 N 
ATOM     63  CA  PRO A   2      14.811  19.379  14.987  0.00  0.00    +0.152 C 
ATOM     64  CB  PRO A   2      14.739  18.358  13.846  0.00  0.00    +0.031 C 
ATOM     65  CG  PRO A   2      13.834  18.991  12.864  0.00  0.00    +0.024 C 
ATOM     66  CD  PRO A   2      12.774  19.638  13.704  0.00  0.00    +0.094 C 
BRANCH  60  67
ATOM     67  CA  THR A   1      11.889  21.765  15.581  0.00  0.00    +0.172 C 
BRANCH  67  68
ATOM     68  N   THR A   1      11.198  21.789  16.860  0.00  0.00    -0.236 NA
ATOM     69  H   THR A   1      11.215  22.652  17.441  0.00  0.00    +0.142 HD
ENDBRANCH  67  68
BRANCH  67  70
ATOM     70  CB  THR A   1      12.184  23.192  15.047  0.00  0.00    +0.135 C 
ATOM     71  CG2 THR A   1      12.956  24.016  16.072  0.00  0.00    +0.034 C 
BRANCH  70  72
ATOM     72  OG1 THR A   1      12.958  23.093  13.848  0.00  0.00    -0.383 OA
ATOM     73  HG1 THR A   1      13.810  22.628  14.044  0.00  0.00    +0.210 HD
ENDBRANCH  70  72
ENDBRANCH  67  70
ENDBRANCH  60  67
ENDBRANCH  56  63
ENDBRANCH  55  58
BRANCH  55  74
ATOM     74  CB  THR A   3      17.962  22.118  13.167  0.00  0.00    +0.137 C 
ATOM     75  CG2 THR A   3      17.391  22.750  11.907  0.00  0.00    +0.034 C 
BRANCH  74  76
ATOM     76  OG1 THR A   3      19.264  22.665  13.414  0.00  0.00    -0.382 OA
ATOM     77  HG1 THR A   3      19.189  23.642  13.555  0.00  0.00    +0.210 HD
ENDBRANCH  74  76
ENDBRANCH  55  74
ENDBRANCH  51  55
ENDBRANCH  50  52
BRANCH  50  78
ATOM     78  CB  ASN A   4      17.917  26.986  15.778  0.00  0.00    +0.114 C 
BRANCH  78  79
ATOM     79  CG  ASN A   4      17.756  26.580  17.230  0.00  0.00    +0.222 C 
ATOM     80  ND2 ASN A   4      18.833  26.718  18.007  0.00  0.00    -0.329 N 
ATOM     81 HD21 ASN A   4      18.782  26.470  19.016  0.00  0.00    +0.145 HD
ATOM     82 HD22 ASN A   4      19.723  27.074  17.604  0.00  0.00    +0.145 HD
ATOM     83  OD1 ASN A   4      16.675  26.163  17.655  0.00  0.00    -0.275 OA
ENDBRANCH  78  79
ENDBRANCH  50  78
ENDBRANCH  46  50
ENDBRANCH  45  47
BRANCH  45  84
ATOM     84  CB  VAL A   5      15.006  27.263  10.779  0.00  0.00    +0.027 C 
ATOM     85  CG2 VAL A   5      15.528  25.858  10.492  0.00  0.00    +0.002 C 
ATOM     86  CG1 VAL A   5      14.754  28.012   9.481  0.00  0.00    +0.002 C 
ENDBRANCH  45  84
ENDBRANCH   1  45
TORSDOF 32
REMARK  Name = ../refined-set-2016/4a4q/4a4q_pocket.pdb
REMARK  241 active torsions:
REMARK  status: ('A' for Active; 'I' for Inactive)
REMARK    1  A    between atoms: _1  and  _3
REMARK    2  A    between atoms: _3  and  _4
REMARK    3  A    between atoms: _3  and  _6
REMARK    4  A    between atoms: _6  and  _7
REMARK    5  A    between atoms: _7  and  _8
REMARK    6  A    between atoms: _8  and  _9
REMARK    7  A    between atoms: _18  and  _20
REMARK    8  A    between atoms: _20  and  _21
REMARK    9  A    between atoms: _20  and  _23
REMARK   10  A    between atoms: _23  and  _24
REMARK   11  A    between atoms: _27  and  _29
REMARK   12  A    between atoms: _29  and  _30
REMARK   13  A    between atoms: _29  and  _32
REMARK   14  A    between atoms: _32  and  _33
REMARK   15  A    between atoms: _36  and  _38
REMARK   16  A    between atoms: _38  and  _39
REMARK   17  A    between atoms: _38  and  _41
REMARK   18  A    between atoms: _41  and  _42
REMARK   19  A    between atoms: _45  and  _47
REMARK   20  A    between atoms: _47  and  _48
REMARK   21  A    between atoms: _47  and  _50
REMARK   22  A    between atoms: _50  and  _51
REMARK   23  A    between atoms: _54  and  _56
REMARK   24  A    between atoms: _56  and  _57
REMARK   25  A    between atoms: _59  and  _61
REMARK   26  A    between atoms: _61  and  _62
REMARK   27  A    between atoms: _65  and  _67
REMARK   28  A    between atoms: _67  and  _68
REMARK   29  A    between atoms: _67  and  _70
REMARK   30  A    between atoms: _70  and  _71
REMARK   31  A    between atoms: _74  and  _76
REMARK   32  A    between atoms: _76  and  _77
REMARK   33  A    between atoms: _76  and  _79
REMARK   34  A    between atoms: _79  and  _80
REMARK   35  A    between atoms: _83  and  _85
REMARK   36  A    between atoms: _85  and  _86
REMARK   37  A    between atoms: _85  and  _88
REMARK   38  A    between atoms: _88  and  _89
REMARK   39  A    between atoms: _92  and  _94
REMARK   40  A    between atoms: _94  and  _95
REMARK   41  A    between atoms: _94  and  _97
REMARK   42  A    between atoms: _100  and  _102
REMARK   43  A    between atoms: _102  and  _103
REMARK   44  A    between atoms: _102  and  _105
REMARK   45  A    between atoms: _105  and  _106
REMARK   46  A    between atoms: _109  and  _111
REMARK   47  A    between atoms: _111  and  _112
REMARK   48  A    between atoms: _111  and  _114
REMARK   49  A    between atoms: _114  and  _115
REMARK   50  A    between atoms: _115  and  _116
REMARK   51  A    between atoms: _119  and  _121
REMARK   52  A    between atoms: _121  and  _122
REMARK   53  A    between atoms: _121  and  _124
REMARK   54  A    between atoms: _124  and  _125
REMARK   55  A    between atoms: _125  and  _126
REMARK   56  A    between atoms: _126  and  _127
REMARK   57  A    between atoms: _127  and  _128
REMARK   58  A    between atoms: _132  and  _134
REMARK   59  A    between atoms: _134  and  _135
REMARK   60  A    between atoms: _134  and  _137
REMARK   61  A    between atoms: _137  and  _138
REMARK   62  A    between atoms: _138  and  _139
REMARK   63  A    between atoms: _141  and  _143
REMARK   64  A    between atoms: _143  and  _144
REMARK   65  A    between atoms: _143  and  _146
REMARK   66  A    between atoms: _146  and  _147
REMARK   67  A    between atoms: _150  and  _152
REMARK   68  A    between atoms: _152  and  _153
REMARK   69  A    between atoms: _155  and  _157
REMARK   70  A    between atoms: _157  and  _158
REMARK   71  A    between atoms: _160  and  _162
REMARK   72  A    between atoms: _162  and  _163
REMARK   73  A    between atoms: _162  and  _165
REMARK   74  A    between atoms: _165  and  _166
REMARK   75  A    between atoms: _169  and  _171
REMARK   76  A    between atoms: _171  and  _172
REMARK   77  A    between atoms: _174  and  _176
REMARK   78  A    between atoms: _176  and  _177
REMARK   79  A    between atoms: _179  and  _181
REMARK   80  A    between atoms: _181  and  _182
REMARK   81  A    between atoms: _181  and  _184
REMARK   82  A    between atoms: _184  and  _185
REMARK   83  A    between atoms: _191  and  _193
REMARK   84  A    between atoms: _193  and  _194
REMARK   85  A    between atoms: _193  and  _196
REMARK   86  A    between atoms: _196  and  _197
REMARK   87  A    between atoms: _200  and  _202
REMARK   88  A    between atoms: _202  and  _203
REMARK   89  A    between atoms: _202  and  _205
REMARK   90  A    between atoms: _208  and  _210
REMARK   91  A    between atoms: _210  and  _211
REMARK   92  A    between atoms: _210  and  _213
REMARK   93  A    between atoms: _213  and  _214
REMARK   94  A    between atoms: _217  and  _219
REMARK   95  A    between atoms: _219  and  _220
REMARK   96  A    between atoms: _219  and  _222
REMARK   97  A    between atoms: _222  and  _223
REMARK   98  A    between atoms: _227  and  _228
REMARK   99  A    between atoms: _233  and  _235
REMARK  100  A    between atoms: _235  and  _236
REMARK  101  A    between atoms: _235  and  _238
REMARK  102  A    between atoms: _238  and  _239
REMARK  103  A    between atoms: _242  and  _244
REMARK  104  A    between atoms: _244  and  _245
REMARK  105  A    between atoms: _244  and  _247
REMARK  106  A    between atoms: _247  and  _248
REMARK  107  A    between atoms: _253  and  _255
REMARK  108  A    between atoms: _255  and  _256
REMARK  109  A    between atoms: _255  and  _258
REMARK  110  A    between atoms: _261  and  _263
REMARK  111  A    between atoms: _263  and  _264
REMARK  112  A    between atoms: _263  and  _266
REMARK  113  A    between atoms: _266  and  _267
REMARK  114  A    between atoms: _270  and  _272
REMARK  115  A    between atoms: _272  and  _273
REMARK  116  A    between atoms: _275  and  _277
REMARK  117  A    between atoms: _277  and  _278
REMARK  118  A    between atoms: _277  and  _280
REMARK  119  A    between atoms: _280  and  _281
REMARK  120  A    between atoms: _281  and  _282
REMARK  121  A    between atoms: _282  and  _283
REMARK  122  A    between atoms: _292  and  _294
REMARK  123  A    between atoms: _294  and  _295
REMARK  124  A    between atoms: _294  and  _297
REMARK  125  A    between atoms: _297  and  _298
REMARK  126  A    between atoms: _303  and  _305
REMARK  127  A    between atoms: _305  and  _306
REMARK  128  A    between atoms: _305  and  _308
REMARK  129  A    between atoms: _308  and  _309
REMARK  130  A    between atoms: _309  and  _310
REMARK  131  A    between atoms: _310  and  _311
REMARK  132  A    between atoms: _320  and  _322
REMARK  133  A    between atoms: _322  and  _323
REMARK  134  A    between atoms: _322  and  _325
REMARK  135  A    between atoms: _325  and  _326
REMARK  136  A    between atoms: _329  and  _331
REMARK  137  A    between atoms: _331  and  _332
REMARK  138  A    between atoms: _331  and  _334
REMARK  139  A    between atoms: _334  and  _335
REMARK  140  A    between atoms: _338  and  _340
REMARK  141  A    between atoms: _340  and  _341
REMARK  142  A    between atoms: _340  and  _343
REMARK  143  A    between atoms: _343  and  _344
REMARK  144  A    between atoms: _347  and  _349
REMARK  145  A    between atoms: _349  and  _350
REMARK  146  A    between atoms: _349  and  _352
REMARK  147  A    between atoms: _352  and  _353
REMARK  148  A    between atoms: _356  and  _358
REMARK  149  A    between atoms: _358  and  _359
REMARK  150  A    between atoms: _358  and  _361
REMARK  151  A    between atoms: _361  and  _362
REMARK  152  A    between atoms: _365  and  _367
REMARK  153  A    between atoms: _367  and  _368
REMARK  154  A    between atoms: _370  and  _372
REMARK  155  A    between atoms: _372  and  _373
REMARK  156  A    between atoms: _376  and  _378
REMARK  157  A    between atoms: _378  and  _379
REMARK  158  A    between atoms: _378  and  _381
REMARK  159  A    between atoms: _381  and  _382
REMARK  160  A    between atoms: _385  and  _387
REMARK  161  A    between atoms: _387  and  _388
REMARK  162  A    between atoms: _387  and  _390
REMARK  163  A    between atoms: _390  and  _391
REMARK  164  A    between atoms: _394  and  _396
REMARK  165  A    between atoms: _396  and  _397
REMARK  166  A    between atoms: _396  and  _399
REMARK  167  A    between atoms: _399  and  _400
REMARK  168  A    between atoms: _403  and  _405
REMARK  169  A    between atoms: _405  and  _406
REMARK  170  A    between atoms: _405  and  _408
REMARK  171  A    between atoms: _411  and  _413
REMARK  172  A    between atoms: _413  and  _414
REMARK  173  A    between atoms: _413  and  _416
REMARK  174  A    between atoms: _416  and  _417
REMARK  175  A    between atoms: _417  and  _418
REMARK  176  A    between atoms: _418  and  _419
REMARK  177  A    between atoms: _419  and  _420
REMARK  178  A    between atoms: _424  and  _426
REMARK  179  A    between atoms: _426  and  _427
REMARK  180  A    between atoms: _426  and  _429
REMARK  181  A    between atoms: _429  and  _430
REMARK  182  A    between atoms: _430  and  _431
REMARK  183  A    between atoms: _433  and  _435
REMARK  184  A    between atoms: _435  and  _436
REMARK  185  A    between atoms: _435  and  _438
REMARK  186  A    between atoms: _438  and  _439
REMARK  187  A    between atoms: _442  and  _444
REMARK  188  A    between atoms: _444  and  _445
REMARK  189  A    between atoms: _447  and  _449
REMARK  190  A    between atoms: _449  and  _450
REMARK  191  A    between atoms: _452  and  _454
REMARK  192  A    between atoms: _454  and  _455
REMARK  193  A    between atoms: _454  and  _457
REMARK  194  A    between atoms: _457  and  _458
REMARK  195  A    between atoms: _461  and  _463
REMARK  196  A    between atoms: _463  and  _464
REMARK  197  A    between atoms: _466  and  _468
REMARK  198  A    between atoms: _468  and  _469
REMARK  199  A    between atoms: _471  and  _473
REMARK  200  A    between atoms: _473  and  _474
REMARK  201  A    between atoms: _473  and  _476
REMARK  202  A    between atoms: _476  and  _477
REMARK  203  A    between atoms: _483  and  _485
REMARK  204  A    between atoms: _485  and  _486
REMARK  205  A    between atoms: _485  and  _488
REMARK  206  A    between atoms: _488  and  _489
REMARK  207  A    between atoms: _492  and  _494
REMARK  208  A    between atoms: _494  and  _495
REMARK  209  A    between atoms: _494  and  _497
REMARK  210  A    between atoms: _500  and  _502
REMARK  211  A    between atoms: _502  and  _503
REMARK  212  A    between atoms: _502  and  _505
REMARK  213  A    between atoms: _505  and  _506
REMARK  214  A    between atoms: _509  and  _511
REMARK  215  A    between atoms: _511  and  _512
REMARK  216  A    between atoms: _511  and  _514
REMARK  217  A    between atoms: _514  and  _515
REMARK  218  A    between atoms: _519  and  _520
REMARK  219  A    between atoms: _525  and  _527
REMARK  220  A    between atoms: _527  and  _528
REMARK  221  A    between atoms: _527  and  _530
REMARK  222  A    between atoms: _530  and  _531
REMARK  223  A    between atoms: _534  and  _536
REMARK  224  A    between atoms: _536  and  _537
REMARK  225  A    between atoms: _536  and  _539
REMARK  226  A    between atoms: _539  and  _540
REMARK  227  A    between atoms: _545  and  _547
REMARK  228  A    between atoms: _547  and  _548
REMARK  229  A    between atoms: _547  and  _550
REMARK  230  A    between atoms: _553  and  _555
REMARK  231  A    between atoms: _555  and  _556
REMARK  232  A    between atoms: _555  and  _558
REMARK  233  A    between atoms: _558  and  _559
REMARK  234  A    between atoms: _562  and  _564
REMARK  235  A    between atoms: _564  and  _565
REMARK  236  A    between atoms: _567  and  _569
REMARK  237  A    between atoms: _569  and  _570
REMARK  238  A    between atoms: _569  and  _572
REMARK  239  A    between atoms: _572  and  _573
REMARK  240  A    between atoms: _573  and  _574
REMARK  241  A    between atoms: _574  and  _575
REMARK                            x       y       z     vdW  Elec       q    Type
REMARK                         _______ _______ _______ _____ _____    ______ ____
ROOT
ATOM      1  NE  ARG A   1       5.910  30.635   0.592  0.00  0.00    -0.265 N 
ATOM      2  HE  ARG A   1       6.335  30.920   1.497  0.00  0.00    +0.259 HD
ATOM      3  CZ  ARG A   1       4.696  30.095   0.621  0.00  0.00    +0.342 C 
ATOM      4  NH2 ARG A   1       4.066  29.937   1.781  0.00  0.00    -0.292 N 
ATOM      5 HH21 ARG A   1       4.523  30.236   2.666  0.00  0.00    +0.255 HD
ATOM      6 HH22 ARG A   1       3.116  29.514   1.803  0.00  0.00    +0.255 HD
ATOM      7  NH1 ARG A   1       4.112  29.716  -0.507  0.00  0.00    -0.292 N 
ATOM      8 HH11 ARG A   1       3.162  29.293  -0.484  0.00  0.00    +0.255 HD
ATOM      9 HH12 ARG A   1       4.604  29.841  -1.415  0.00  0.00    +0.255 HD
ENDROOT
BRANCH   1  10
ATOM     10  CD  ARG A   1       6.686  30.855  -0.622  0.00  0.00    +0.174 C 
BRANCH  10  11
ATOM     11  CG  ARG A   1       7.853  31.777  -0.358  0.00  0.00    +0.045 C 
BRANCH  11  12
ATOM     12  CB  ARG A   1       8.612  32.068  -1.637  0.00  0.00    +0.029 C 
BRANCH  12  13
ATOM     13  CA  ARG A   1       9.616  33.212  -1.503  0.00  0.00    +0.133 C 
BRANCH  13  14
ATOM     14  N   ARG A   1       8.914  34.490  -1.375  0.00  0.00    -0.239 NA
ATOM     15  H   ARG A   1       7.875  34.515  -1.415  0.00  0.00    +0.142 HD
ENDBRANCH  13  14
BRANCH  13  16
ATOM     16  C   ARG A   1      10.526  33.225  -2.732  0.00  0.00    +0.224 C 
ATOM     17  O   ARG A   1      10.117  33.656  -3.808  0.00  0.00    -0.287 OA
ENDBRANCH  13  16
ENDBRANCH  12  13
ENDBRANCH  11  12
ENDBRANCH  10  11
ENDBRANCH   1  10
TORSDOF 6
REMARK  Name = ../refined-set-2016/4a4q/4a4q_pocket.pdb
REMARK  241 active torsions:
REMARK  status: ('A' for Active; 'I' for Inactive)
REMARK    1  A    between atoms: _1  and  _3
REMARK    2  A    between atoms: _3  and  _4
REMARK    3  A    between atoms: _3  and  _6
REMARK    4  A    between atoms: _6  and  _7
REMARK    5  A    between atoms: _7  and  _8
REMARK    6  A    between atoms: _8  and  _9
REMARK    7  A    between atoms: _18  and  _20
REMARK    8  A    between atoms: _20  and  _21
REMARK    9  A    between atoms: _20  and  _23
REMARK   10  A    between atoms: _23  and  _24
REMARK   11  A    between atoms: _27  and  _29
REMARK   12  A    between atoms: _29  and  _30
REMARK   13  A    between atoms: _29  and  _32
REMARK   14  A    between atoms: _32  and  _33
REMARK   15  A    between atoms: _36  and  _38
REMARK   16  A    between atoms: _38  and  _39
REMARK   17  A    between atoms: _38  and  _41
REMARK   18  A    between atoms: _41  and  _42
REMARK   19  A    between atoms: _45  and  _47
REMARK   20  A    between atoms: _47  and  _48
REMARK   21  A    between atoms: _47  and  _50
REMARK   22  A    between atoms: _50  and  _51
REMARK   23  A    between atoms: _54  and  _56
REMARK   24  A    between atoms: _56  and  _57
REMARK   25  A    between atoms: _59  and  _61
REMARK   26  A    between atoms: _61  and  _62
REMARK   27  A    between atoms: _65  and  _67
REMARK   28  A    between atoms: _67  and  _68
REMARK   29  A    between atoms: _67  and  _70
REMARK   30  A    between atoms: _70  and  _71
REMARK   31  A    between atoms: _74  and  _76
REMARK   32  A    between atoms: _76  and  _77
REMARK   33  A    between atoms: _76  and  _79
REMARK   34  A    between atoms: _79  and  _80
REMARK   35  A    between atoms: _83  and  _85
REMARK   36  A    between atoms: _85  and  _86
REMARK   37  A    between atoms: _85  and  _88
REMARK   38  A    between atoms: _88  and  _89
REMARK   39  A    between atoms: _92  and  _94
REMARK   40  A    between atoms: _94  and  _95
REMARK   41  A    between atoms: _94  and  _97
REMARK   42  A    between atoms: _100  and  _102
REMARK   43  A    between atoms: _102  and  _103
REMARK   44  A    between atoms: _102  and  _105
REMARK   45  A    between atoms: _105  and  _106
REMARK   46  A    between atoms: _109  and  _111
REMARK   47  A    between atoms: _111  and  _112
REMARK   48  A    between atoms: _111  and  _114
REMARK   49  A    between atoms: _114  and  _115
REMARK   50  A    between atoms: _115  and  _116
REMARK   51  A    between atoms: _119  and  _121
REMARK   52  A    between atoms: _121  and  _122
REMARK   53  A    between atoms: _121  and  _124
REMARK   54  A    between atoms: _124  and  _125
REMARK   55  A    between atoms: _125  and  _126
REMARK   56  A    between atoms: _126  and  _127
REMARK   57  A    between atoms: _127  and  _128
REMARK   58  A    between atoms: _132  and  _134
REMARK   59  A    between atoms: _134  and  _135
REMARK   60  A    between atoms: _134  and  _137
REMARK   61  A    between atoms: _137  and  _138
REMARK   62  A    between atoms: _138  and  _139
REMARK   63  A    between atoms: _141  and  _143
REMARK   64  A    between atoms: _143  and  _144
REMARK   65  A    between atoms: _143  and  _146
REMARK   66  A    between atoms: _146  and  _147
REMARK   67  A    between atoms: _150  and  _152
REMARK   68  A    between atoms: _152  and  _153
REMARK   69  A    between atoms: _155  and  _157
REMARK   70  A    between atoms: _157  and  _158
REMARK   71  A    between atoms: _160  and  _162
REMARK   72  A    between atoms: _162  and  _163
REMARK   73  A    between atoms: _162  and  _165
REMARK   74  A    between atoms: _165  and  _166
REMARK   75  A    between atoms: _169  and  _171
REMARK   76  A    between atoms: _171  and  _172
REMARK   77  A    between atoms: _174  and  _176
REMARK   78  A    between atoms: _176  and  _177
REMARK   79  A    between atoms: _179  and  _181
REMARK   80  A    between atoms: _181  and  _182
REMARK   81  A    between atoms: _181  and  _184
REMARK   82  A    between atoms: _184  and  _185
REMARK   83  A    between atoms: _191  and  _193
REMARK   84  A    between atoms: _193  and  _194
REMARK   85  A    between atoms: _193  and  _196
REMARK   86  A    between atoms: _196  and  _197
REMARK   87  A    between atoms: _200  and  _202
REMARK   88  A    between atoms: _202  and  _203
REMARK   89  A    between atoms: _202  and  _205
REMARK   90  A    between atoms: _208  and  _210
REMARK   91  A    between atoms: _210  and  _211
REMARK   92  A    between atoms: _210  and  _213
REMARK   93  A    between atoms: _213  and  _214
REMARK   94  A    between atoms: _217  and  _219
REMARK   95  A    between atoms: _219  and  _220
REMARK   96  A    between atoms: _219  and  _222
REMARK   97  A    between atoms: _222  and  _223
REMARK   98  A    between atoms: _227  and  _228
REMARK   99  A    between atoms: _233  and  _235
REMARK  100  A    between atoms: _235  and  _236
REMARK  101  A    between atoms: _235  and  _238
REMARK  102  A    between atoms: _238  and  _239
REMARK  103  A    between atoms: _242  and  _244
REMARK  104  A    between atoms: _244  and  _245
REMARK  105  A    between atoms: _244  and  _247
REMARK  106  A    between atoms: _247  and  _248
REMARK  107  A    between atoms: _253  and  _255
REMARK  108  A    between atoms: _255  and  _256
REMARK  109  A    between atoms: _255  and  _258
REMARK  110  A    between atoms: _261  and  _263
REMARK  111  A    between atoms: _263  and  _264
REMARK  112  A    between atoms: _263  and  _266
REMARK  113  A    between atoms: _266  and  _267
REMARK  114  A    between atoms: _270  and  _272
REMARK  115  A    between atoms: _272  and  _273
REMARK  116  A    between atoms: _275  and  _277
REMARK  117  A    between atoms: _277  and  _278
REMARK  118  A    between atoms: _277  and  _280
REMARK  119  A    between atoms: _280  and  _281
REMARK  120  A    between atoms: _281  and  _282
REMARK  121  A    between atoms: _282  and  _283
REMARK  122  A    between atoms: _292  and  _294
REMARK  123  A    between atoms: _294  and  _295
REMARK  124  A    between atoms: _294  and  _297
REMARK  125  A    between atoms: _297  and  _298
REMARK  126  A    between atoms: _303  and  _305
REMARK  127  A    between atoms: _305  and  _306
REMARK  128  A    between atoms: _305  and  _308
REMARK  129  A    between atoms: _308  and  _309
REMARK  130  A    between atoms: _309  and  _310
REMARK  131  A    between atoms: _310  and  _311
REMARK  132  A    between atoms: _320  and  _322
REMARK  133  A    between atoms: _322  and  _323
REMARK  134  A    between atoms: _322  and  _325
REMARK  135  A    between atoms: _325  and  _326
REMARK  136  A    between atoms: _329  and  _331
REMARK  137  A    between atoms: _331  and  _332
REMARK  138  A    between atoms: _331  and  _334
REMARK  139  A    between atoms: _334  and  _335
REMARK  140  A    between atoms: _338  and  _340
REMARK  141  A    between atoms: _340  and  _341
REMARK  142  A    between atoms: _340  and  _343
REMARK  143  A    between atoms: _343  and  _344
REMARK  144  A    between atoms: _347  and  _349
REMARK  145  A    between atoms: _349  and  _350
REMARK  146  A    between atoms: _349  and  _352
REMARK  147  A    between atoms: _352  and  _353
REMARK  148  A    between atoms: _356  and  _358
REMARK  149  A    between atoms: _358  and  _359
REMARK  150  A    between atoms: _358  and  _361
REMARK  151  A    between atoms: _361  and  _362
REMARK  152  A    between atoms: _365  and  _367
REMARK  153  A    between atoms: _367  and  _368
REMARK  154  A    between atoms: _370  and  _372
REMARK  155  A    between atoms: _372  and  _373
REMARK  156  A    between atoms: _376  and  _378
REMARK  157  A    between atoms: _378  and  _379
REMARK  158  A    between atoms: _378  and  _381
REMARK  159  A    between atoms: _381  and  _382
REMARK  160  A    between atoms: _385  and  _387
REMARK  161  A    between atoms: _387  and  _388
REMARK  162  A    between atoms: _387  and  _390
REMARK  163  A    between atoms: _390  and  _391
REMARK  164  A    between atoms: _394  and  _396
REMARK  165  A    between atoms: _396  and  _397
REMARK  166  A    between atoms: _396  and  _399
REMARK  167  A    between atoms: _399  and  _400
REMARK  168  A    between atoms: _403  and  _405
REMARK  169  A    between atoms: _405  and  _406
REMARK  170  A    between atoms: _405  and  _408
REMARK  171  A    between atoms: _411  and  _413
REMARK  172  A    between atoms: _413  and  _414
REMARK  173  A    between atoms: _413  and  _416
REMARK  174  A    between atoms: _416  and  _417
REMARK  175  A    between atoms: _417  and  _418
REMARK  176  A    between atoms: _418  and  _419
REMARK  177  A    between atoms: _419  and  _420
REMARK  178  A    between atoms: _424  and  _426
REMARK  179  A    between atoms: _426  and  _427
REMARK  180  A    between atoms: _426  and  _429
REMARK  181  A    between atoms: _429  and  _430
REMARK  182  A    between atoms: _430  and  _431
REMARK  183  A    between atoms: _433  and  _435
REMARK  184  A    between atoms: _435  and  _436
REMARK  185  A    between atoms: _435  and  _438
REMARK  186  A    between atoms: _438  and  _439
REMARK  187  A    between atoms: _442  and  _444
REMARK  188  A    between atoms: _444  and  _445
REMARK  189  A    between atoms: _447  and  _449
REMARK  190  A    between atoms: _449  and  _450
REMARK  191  A    between atoms: _452  and  _454
REMARK  192  A    between atoms: _454  and  _455
REMARK  193  A    between atoms: _454  and  _457
REMARK  194  A    between atoms: _457  and  _458
REMARK  195  A    between atoms: _461  and  _463
REMARK  196  A    between atoms: _463  and  _464
REMARK  197  A    between atoms: _466  and  _468
REMARK  198  A    between atoms: _468  and  _469
REMARK  199  A    between atoms: _471  and  _473
REMARK  200  A    between atoms: _473  and  _474
REMARK  201  A    between atoms: _473  and  _476
REMARK  202  A    between atoms: _476  and  _477
REMARK  203  A    between atoms: _483  and  _485
REMARK  204  A    between atoms: _485  and  _486
REMARK  205  A    between atoms: _485  and  _488
REMARK  206  A    between atoms: _488  and  _489
REMARK  207  A    between atoms: _492  and  _494
REMARK  208  A    between atoms: _494  and  _495
REMARK  209  A    between atoms: _494  and  _497
REMARK  210  A    between atoms: _500  and  _502
REMARK  211  A    between atoms: _502  and  _503
REMARK  212  A    between atoms: _502  and  _505
REMARK  213  A    between atoms: _505  and  _506
REMARK  214  A    between atoms: _509  and  _511
REMARK  215  A    between atoms: _511  and  _512
REMARK  216  A    between atoms: _511  and  _514
REMARK  217  A    between atoms: _514  and  _515
REMARK  218  A    between atoms: _519  and  _520
REMARK  219  A    between atoms: _525  and  _527
REMARK  220  A    between atoms: _527  and  _528
REMARK  221  A    between atoms: _527  and  _530
REMARK  222  A    between atoms: _530  and  _531
REMARK  223  A    between atoms: _534  and  _536
REMARK  224  A    between atoms: _536  and  _537
REMARK  225  A    between atoms: _536  and  _539
REMARK  226  A    between atoms: _539  and  _540
REMARK  227  A    between atoms: _545  and  _547
REMARK  228  A    between atoms: _547  and  _548
REMARK  229  A    between atoms: _547  and  _550
REMARK  230  A    between atoms: _553  and  _555
REMARK  231  A    between atoms: _555  and  _556
REMARK  232  A    between atoms: _555  and  _558
REMARK  233  A    between atoms: _558  and  _559
REMARK  234  A    between atoms: _562  and  _564
REMARK  235  A    between atoms: _564  and  _565
REMARK  236  A    between atoms: _567  and  _569
REMARK  237  A    between atoms: _569  and  _570
REMARK  238  A    between atoms: _569  and  _572
REMARK  239  A    between atoms: _572  and  _573
REMARK  240  A    between atoms: _573  and  _574
REMARK  241  A    between atoms: _574  and  _575
REMARK                            x       y       z     vdW  Elec       q    Type
REMARK                         _______ _______ _______ _____ _____    ______ ____
ROOT
ATOM      1  CA  LEU A   1      10.796  30.698  -6.297  0.00  0.00    +0.133 C 
ENDROOT
BRANCH   1   2
ATOM      2  N   LEU A   1      11.251  31.706  -5.349  0.00  0.00    -0.239 NA
ATOM      3  H   LEU A   1      10.668  32.555  -5.204  0.00  0.00    +0.142 HD
ENDBRANCH   1   2
BRANCH   1   4
ATOM      4  C   LEU A   1      11.380  31.014  -7.656  0.00  0.00    +0.224 C 
ATOM      5  O   LEU A   1      11.333  32.160  -8.106  0.00  0.00    -0.287 OA
ENDBRANCH   1   4
BRANCH   1   6
ATOM      6  CB  LEU A   1       9.268  30.701  -6.394  0.00  0.00    +0.025 C 
BRANCH   6   7
ATOM      7  CG  LEU A   1       8.479  30.226  -5.176  0.00  0.00    +0.002 C 
ATOM      8  CD2 LEU A   1       8.700  28.732  -4.974  0.00  0.00    +0.000 C 
ATOM      9  CD1 LEU A   1       6.997  30.527  -5.376  0.00  0.00    +0.000 C 
ENDBRANCH   6   7
ENDBRANCH   1   6
TORSDOF 4
REMARK  Name = ../refined-set-2016/4a4q/4a4q_pocket.pdb
REMARK  241 active torsions:
REMARK  status: ('A' for Active; 'I' for Inactive)
REMARK    1  A    between atoms: _1  and  _3
REMARK    2  A    between atoms: _3  and  _4
REMARK    3  A    between atoms: _3  and  _6
REMARK    4  A    between atoms: _6  and  _7
REMARK    5  A    between atoms: _7  and  _8
REMARK    6  A    between atoms: _8  and  _9
REMARK    7  A    between atoms: _18  and  _20
REMARK    8  A    between atoms: _20  and  _21
REMARK    9  A    between atoms: _20  and  _23
REMARK   10  A    between atoms: _23  and  _24
REMARK   11  A    between atoms: _27  and  _29
REMARK   12  A    between atoms: _29  and  _30
REMARK   13  A    between atoms: _29  and  _32
REMARK   14  A    between atoms: _32  and  _33
REMARK   15  A    between atoms: _36  and  _38
REMARK   16  A    between atoms: _38  and  _39
REMARK   17  A    between atoms: _38  and  _41
REMARK   18  A    between atoms: _41  and  _42
REMARK   19  A    between atoms: _45  and  _47
REMARK   20  A    between atoms: _47  and  _48
REMARK   21  A    between atoms: _47  and  _50
REMARK   22  A    between atoms: _50  and  _51
REMARK   23  A    between atoms: _54  and  _56
REMARK   24  A    between atoms: _56  and  _57
REMARK   25  A    between atoms: _59  and  _61
REMARK   26  A    between atoms: _61  and  _62
REMARK   27  A    between atoms: _65  and  _67
REMARK   28  A    between atoms: _67  and  _68
REMARK   29  A    between atoms: _67  and  _70
REMARK   30  A    between atoms: _70  and  _71
REMARK   31  A    between atoms: _74  and  _76
REMARK   32  A    between atoms: _76  and  _77
REMARK   33  A    between atoms: _76  and  _79
REMARK   34  A    between atoms: _79  and  _80
REMARK   35  A    between atoms: _83  and  _85
REMARK   36  A    between atoms: _85  and  _86
REMARK   37  A    between atoms: _85  and  _88
REMARK   38  A    between atoms: _88  and  _89
REMARK   39  A    between atoms: _92  and  _94
REMARK   40  A    between atoms: _94  and  _95
REMARK   41  A    between atoms: _94  and  _97
REMARK   42  A    between atoms: _100  and  _102
REMARK   43  A    between atoms: _102  and  _103
REMARK   44  A    between atoms: _102  and  _105
REMARK   45  A    between atoms: _105  and  _106
REMARK   46  A    between atoms: _109  and  _111
REMARK   47  A    between atoms: _111  and  _112
REMARK   48  A    between atoms: _111  and  _114
REMARK   49  A    between atoms: _114  and  _115
REMARK   50  A    between atoms: _115  and  _116
REMARK   51  A    between atoms: _119  and  _121
REMARK   52  A    between atoms: _121  and  _122
REMARK   53  A    between atoms: _121  and  _124
REMARK   54  A    between atoms: _124  and  _125
REMARK   55  A    between atoms: _125  and  _126
REMARK   56  A    between atoms: _126  and  _127
REMARK   57  A    between atoms: _127  and  _128
REMARK   58  A    between atoms: _132  and  _134
REMARK   59  A    between atoms: _134  and  _135
REMARK   60  A    between atoms: _134  and  _137
REMARK   61  A    between atoms: _137  and  _138
REMARK   62  A    between atoms: _138  and  _139
REMARK   63  A    between atoms: _141  and  _143
REMARK   64  A    between atoms: _143  and  _144
REMARK   65  A    between atoms: _143  and  _146
REMARK   66  A    between atoms: _146  and  _147
REMARK   67  A    between atoms: _150  and  _152
REMARK   68  A    between atoms: _152  and  _153
REMARK   69  A    between atoms: _155  and  _157
REMARK   70  A    between atoms: _157  and  _158
REMARK   71  A    between atoms: _160  and  _162
REMARK   72  A    between atoms: _162  and  _163
REMARK   73  A    between atoms: _162  and  _165
REMARK   74  A    between atoms: _165  and  _166
REMARK   75  A    between atoms: _169  and  _171
REMARK   76  A    between atoms: _171  and  _172
REMARK   77  A    between atoms: _174  and  _176
REMARK   78  A    between atoms: _176  and  _177
REMARK   79  A    between atoms: _179  and  _181
REMARK   80  A    between atoms: _181  and  _182
REMARK   81  A    between atoms: _181  and  _184
REMARK   82  A    between atoms: _184  and  _185
REMARK   83  A    between atoms: _191  and  _193
REMARK   84  A    between atoms: _193  and  _194
REMARK   85  A    between atoms: _193  and  _196
REMARK   86  A    between atoms: _196  and  _197
REMARK   87  A    between atoms: _200  and  _202
REMARK   88  A    between atoms: _202  and  _203
REMARK   89  A    between atoms: _202  and  _205
REMARK   90  A    between atoms: _208  and  _210
REMARK   91  A    between atoms: _210  and  _211
REMARK   92  A    between atoms: _210  and  _213
REMARK   93  A    between atoms: _213  and  _214
REMARK   94  A    between atoms: _217  and  _219
REMARK   95  A    between atoms: _219  and  _220
REMARK   96  A    between atoms: _219  and  _222
REMARK   97  A    between atoms: _222  and  _223
REMARK   98  A    between atoms: _227  and  _228
REMARK   99  A    between atoms: _233  and  _235
REMARK  100  A    between atoms: _235  and  _236
REMARK  101  A    between atoms: _235  and  _238
REMARK  102  A    between atoms: _238  and  _239
REMARK  103  A    between atoms: _242  and  _244
REMARK  104  A    between atoms: _244  and  _245
REMARK  105  A    between atoms: _244  and  _247
REMARK  106  A    between atoms: _247  and  _248
REMARK  107  A    between atoms: _253  and  _255
REMARK  108  A    between atoms: _255  and  _256
REMARK  109  A    between atoms: _255  and  _258
REMARK  110  A    between atoms: _261  and  _263
REMARK  111  A    between atoms: _263  and  _264
REMARK  112  A    between atoms: _263  and  _266
REMARK  113  A    between atoms: _266  and  _267
REMARK  114  A    between atoms: _270  and  _272
REMARK  115  A    between atoms: _272  and  _273
REMARK  116  A    between atoms: _275  and  _277
REMARK  117  A    between atoms: _277  and  _278
REMARK  118  A    between atoms: _277  and  _280
REMARK  119  A    between atoms: _280  and  _281
REMARK  120  A    between atoms: _281  and  _282
REMARK  121  A    between atoms: _282  and  _283
REMARK  122  A    between atoms: _292  and  _294
REMARK  123  A    between atoms: _294  and  _295
REMARK  124  A    between atoms: _294  and  _297
REMARK  125  A    between atoms: _297  and  _298
REMARK  126  A    between atoms: _303  and  _305
REMARK  127  A    between atoms: _305  and  _306
REMARK  128  A    between atoms: _305  and  _308
REMARK  129  A    between atoms: _308  and  _309
REMARK  130  A    between atoms: _309  and  _310
REMARK  131  A    between atoms: _310  and  _311
REMARK  132  A    between atoms: _320  and  _322
REMARK  133  A    between atoms: _322  and  _323
REMARK  134  A    between atoms: _322  and  _325
REMARK  135  A    between atoms: _325  and  _326
REMARK  136  A    between atoms: _329  and  _331
REMARK  137  A    between atoms: _331  and  _332
REMARK  138  A    between atoms: _331  and  _334
REMARK  139  A    between atoms: _334  and  _335
REMARK  140  A    between atoms: _338  and  _340
REMARK  141  A    between atoms: _340  and  _341
REMARK  142  A    between atoms: _340  and  _343
REMARK  143  A    between atoms: _343  and  _344
REMARK  144  A    between atoms: _347  and  _349
REMARK  145  A    between atoms: _349  and  _350
REMARK  146  A    between atoms: _349  and  _352
REMARK  147  A    between atoms: _352  and  _353
REMARK  148  A    between atoms: _356  and  _358
REMARK  149  A    between atoms: _358  and  _359
REMARK  150  A    between atoms: _358  and  _361
REMARK  151  A    between atoms: _361  and  _362
REMARK  152  A    between atoms: _365  and  _367
REMARK  153  A    between atoms: _367  and  _368
REMARK  154  A    between atoms: _370  and  _372
REMARK  155  A    between atoms: _372  and  _373
REMARK  156  A    between atoms: _376  and  _378
REMARK  157  A    between atoms: _378  and  _379
REMARK  158  A    between atoms: _378  and  _381
REMARK  159  A    between atoms: _381  and  _382
REMARK  160  A    between atoms: _385  and  _387
REMARK  161  A    between atoms: _387  and  _388
REMARK  162  A    between atoms: _387  and  _390
REMARK  163  A    between atoms: _390  and  _391
REMARK  164  A    between atoms: _394  and  _396
REMARK  165  A    between atoms: _396  and  _397
REMARK  166  A    between atoms: _396  and  _399
REMARK  167  A    between atoms: _399  and  _400
REMARK  168  A    between atoms: _403  and  _405
REMARK  169  A    between atoms: _405  and  _406
REMARK  170  A    between atoms: _405  and  _408
REMARK  171  A    between atoms: _411  and  _413
REMARK  172  A    between atoms: _413  and  _414
REMARK  173  A    between atoms: _413  and  _416
REMARK  174  A    between atoms: _416  and  _417
REMARK  175  A    between atoms: _417  and  _418
REMARK  176  A    between atoms: _418  and  _419
REMARK  177  A    between atoms: _419  and  _420
REMARK  178  A    between atoms: _424  and  _426
REMARK  179  A    between atoms: _426  and  _427
REMARK  180  A    between atoms: _426  and  _429
REMARK  181  A    between atoms: _429  and  _430
REMARK  182  A    between atoms: _430  and  _431
REMARK  183  A    between atoms: _433  and  _435
REMARK  184  A    between atoms: _435  and  _436
REMARK  185  A    between atoms: _435  and  _438
REMARK  186  A    between atoms: _438  and  _439
REMARK  187  A    between atoms: _442  and  _444
REMARK  188  A    between atoms: _444  and  _445
REMARK  189  A    between atoms: _447  and  _449
REMARK  190  A    between atoms: _449  and  _450
REMARK  191  A    between atoms: _452  and  _454
REMARK  192  A    between atoms: _454  and  _455
REMARK  193  A    between atoms: _454  and  _457
REMARK  194  A    between atoms: _457  and  _458
REMARK  195  A    between atoms: _461  and  _463
REMARK  196  A    between atoms: _463  and  _464
REMARK  197  A    between atoms: _466  and  _468
REMARK  198  A    between atoms: _468  and  _469
REMARK  199  A    between atoms: _471  and  _473
REMARK  200  A    between atoms: _473  and  _474
REMARK  201  A    between atoms: _473  and  _476
REMARK  202  A    between atoms: _476  and  _477
REMARK  203  A    between atoms: _483  and  _485
REMARK  204  A    between atoms: _485  and  _486
REMARK  205  A    between atoms: _485  and  _488
REMARK  206  A    between atoms: _488  and  _489
REMARK  207  A    between atoms: _492  and  _494
REMARK  208  A    between atoms: _494  and  _495
REMARK  209  A    between atoms: _494  and  _497
REMARK  210  A    between atoms: _500  and  _502
REMARK  211  A    between atoms: _502  and  _503
REMARK  212  A    between atoms: _502  and  _505
REMARK  213  A    between atoms: _505  and  _506
REMARK  214  A    between atoms: _509  and  _511
REMARK  215  A    between atoms: _511  and  _512
REMARK  216  A    between atoms: _511  and  _514
REMARK  217  A    between atoms: _514  and  _515
REMARK  218  A    between atoms: _519  and  _520
REMARK  219  A    between atoms: _525  and  _527
REMARK  220  A    between atoms: _527  and  _528
REMARK  221  A    between atoms: _527  and  _530
REMARK  222  A    between atoms: _530  and  _531
REMARK  223  A    between atoms: _534  and  _536
REMARK  224  A    between atoms: _536  and  _537
REMARK  225  A    between atoms: _536  and  _539
REMARK  226  A    between atoms: _539  and  _540
REMARK  227  A    between atoms: _545  and  _547
REMARK  228  A    between atoms: _547  and  _548
REMARK  229  A    between atoms: _547  and  _550
REMARK  230  A    between atoms: _553  and  _555
REMARK  231  A    between atoms: _555  and  _556
REMARK  232  A    between atoms: _555  and  _558
REMARK  233  A    between atoms: _558  and  _559
REMARK  234  A    between atoms: _562  and  _564
REMARK  235  A    between atoms: _564  and  _565
REMARK  236  A    between atoms: _567  and  _569
REMARK  237  A    between atoms: _569  and  _570
REMARK  238  A    between atoms: _569  and  _572
REMARK  239  A    between atoms: _572  and  _573
REMARK  240  A    between atoms: _573  and  _574
REMARK  241  A    between atoms: _574  and  _575
REMARK                            x       y       z     vdW  Elec       q    Type
REMARK                         _______ _______ _______ _____ _____    ______ ____
ROOT
ATOM      1  C   GLY A   5      18.263  23.929   4.313  0.00  0.00    +0.243 C 
ATOM      2  O   GLY A   5      18.029  23.085   5.177  0.00  0.00    -0.273 OA
ATOM      3  N   ALA A   6      18.476  23.609   3.041  0.00  0.00    -0.297 N 
ATOM      4  H   ALA A   6      18.681  24.362   2.354  0.00  0.00    +0.150 HD
ENDROOT
BRANCH   3   5
ATOM      5  CA  ALA A   6      18.428  22.222   2.588  0.00  0.00    +0.149 C 
ATOM      6  CB  ALA A   6      17.366  22.076   1.501  0.00  0.00    +0.031 C 
BRANCH   5   7
ATOM      7  C   ALA A   6      19.774  21.722   2.064  0.00  0.00    +0.241 C 
ATOM      8  N   ASP A   7      20.244  20.594   2.594  0.00  0.00    -0.297 N 
ATOM      9  H   ASP A   7      19.706  20.120   3.347  0.00  0.00    +0.150 HD
ATOM     10  O   ALA A   6      20.379  22.351   1.198  0.00  0.00    -0.273 OA
BRANCH   8  11
ATOM     11  CA  ASP A   7      21.505  20.009   2.135  0.00  0.00    +0.160 C 
BRANCH  11  12
ATOM     12  C   ASP A   7      21.336  19.512   0.703  0.00  0.00    +0.241 C 
ATOM     13  N   ASP A   8      20.202  18.859   0.467  0.00  0.00    -0.297 N 
ATOM     14  H   ASP A   8      19.509  18.772   1.237  0.00  0.00    +0.150 HD
ATOM     15  O   ASP A   7      22.210  19.692  -0.146  0.00  0.00    -0.273 OA
BRANCH  13  16
ATOM     16  CA  ASP A   8      19.888  18.260  -0.822  0.00  0.00    +0.160 C 
BRANCH  16  17
ATOM     17  C   ASP A   8      18.739  18.918  -1.570  0.00  0.00    +0.241 C 
ATOM     18  O   ASP A   8      18.034  19.779  -1.044  0.00  0.00    -0.273 OA
ATOM     19  N   THR A   9      18.552  18.452  -2.799  0.00  0.00    -0.295 N 
ATOM     20  H   THR A   9      19.189  17.705  -3.142  0.00  0.00    +0.150 HD
BRANCH  19  21
ATOM     21  CA  THR A   9      17.509  18.926  -3.693  0.00  0.00    +0.176 C 
BRANCH  21  22
ATOM     22  C   THR A   9      16.433  17.848  -3.782  0.00  0.00    +0.243 C 
ATOM     23  N   VAL A  10      15.194  18.203  -3.454  0.00  0.00    -0.298 N 
ATOM     24  H   VAL A  10      14.998  19.180  -3.157  0.00  0.00    +0.150 HD
ATOM     25  O   THR A   9      16.720  16.706  -4.127  0.00  0.00    -0.273 OA
BRANCH  23  26
ATOM     26  CA  VAL A  10      14.107  17.228  -3.509  0.00  0.00    +0.137 C 
BRANCH  26  27
ATOM     27  CB  VAL A  10      13.616  16.847  -2.081  0.00  0.00    +0.026 C 
ATOM     28  CG2 VAL A  10      13.083  18.059  -1.370  0.00  0.00    +0.002 C 
ATOM     29  CG1 VAL A  10      12.549  15.764  -2.161  0.00  0.00    +0.002 C 
ENDBRANCH  26  27
BRANCH  26  30
ATOM     30  C   VAL A  10      12.946  17.762  -4.340  0.00  0.00    +0.227 C 
ATOM     31  O   VAL A  10      12.454  18.869  -4.115  0.00  0.00    -0.286 OA
ENDBRANCH  26  30
ENDBRANCH  23  26
ENDBRANCH  21  22
BRANCH  21  32
ATOM     32  CB  THR A   9      18.111  19.206  -5.087  0.00  0.00    +0.137 C 
ATOM     33  CG2 THR A   9      17.027  19.429  -6.131  0.00  0.00    +0.034 C 
BRANCH  32  34
ATOM     34  OG1 THR A   9      18.945  20.367  -5.006  0.00  0.00    -0.382 OA
ATOM     35  HG1 THR A   9      19.671  20.205  -4.353  0.00  0.00    +0.210 HD
ENDBRANCH  32  34
ENDBRANCH  21  32
ENDBRANCH  19  21
ENDBRANCH  16  17
BRANCH  16  36
ATOM     36  CB  ASP A   8      19.537  16.780  -0.632  0.00  0.00    +0.143 C 
BRANCH  36  37
ATOM     37  CG  ASP A   8      20.507  16.062   0.275  0.00  0.00    +0.367 C 
ATOM     38  OD2 ASP A   8      20.051  15.380   1.217  0.00  0.00    -0.246 OA
ATOM     39  OD1 ASP A   8      21.725  16.176   0.042  0.00  0.00    -0.246 OA
ENDBRANCH  36  37
ENDBRANCH  16  36
ENDBRANCH  13  16
ENDBRANCH  11  12
BRANCH  11  40
ATOM     40  CB  ASP A   7      21.887  18.789   2.974  0.00  0.00    +0.143 C 
BRANCH  40  41
ATOM     41  CG  ASP A   7      22.486  19.143   4.312  0.00  0.00    +0.367 C 
ATOM     42  OD2 ASP A   7      22.925  18.199   5.004  0.00  0.00    -0.246 OA
ATOM     43  OD1 ASP A   7      22.514  20.336   4.678  0.00  0.00    -0.246 OA
ENDBRANCH  40  41
ENDBRANCH  11  40
ENDBRANCH   8  11
ENDBRANCH   5   7
ENDBRANCH   3   5
BRANCH   1  44
ATOM     44  CA  GLY A   5      18.325  25.405   4.668  0.00  0.00    +0.176 C 
BRANCH  44  47
ATOM     45  C   THR A   4      19.706  26.495   3.019  0.00  0.00    +0.243 C 
ATOM     46  O   THR A   4      20.731  26.051   3.533  0.00  0.00    -0.273 OA
ATOM     47  N   GLY A   5      18.492  26.247   3.499  0.00  0.00    -0.295 N 
ATOM     48  H   GLY A   5      17.658  26.659   3.034  0.00  0.00    +0.150 HD
BRANCH  45  49
ATOM     49  CA  THR A   4      19.780  27.374   1.774  0.00  0.00    +0.176 C 
BRANCH  49  51
ATOM     50  C   ASP A   3      17.927  26.469   0.500  0.00  0.00    +0.241 C 
ATOM     51  N   THR A   4      18.481  27.508   1.125  0.00  0.00    -0.295 N 
ATOM     52  H   THR A   4      17.983  28.421   1.150  0.00  0.00    +0.150 HD
ATOM     53  O   ASP A   3      18.462  25.357   0.462  0.00  0.00    -0.273 OA
BRANCH  50  54
ATOM     54  CA  ASP A   3      16.562  26.689  -0.157  0.00  0.00    +0.160 C 
BRANCH  54  57
ATOM     55  C   LEU A   2      16.104  28.076  -2.119  0.00  0.00    +0.241 C 
ATOM     56  O   LEU A   2      15.749  29.034  -1.431  0.00  0.00    -0.273 OA
ATOM     57  N   ASP A   3      16.567  26.943  -1.599  0.00  0.00    -0.297 N 
ATOM     58  H   ASP A   3      16.945  26.214  -2.237  0.00  0.00    +0.150 HD
BRANCH  55  59
ATOM     59  CA  LEU A   2      16.055  28.163  -3.644  0.00  0.00    +0.149 C 
BRANCH  59  62
ATOM     60  C   LEU A   1      13.889  27.054  -3.820  0.00  0.00    +0.238 C 
ATOM     61  O   LEU A   1      14.377  25.976  -3.496  0.00  0.00    -0.274 OA
ATOM     62  N   LEU A   2      14.620  28.163  -3.950  0.00  0.00    -0.297 N 
ATOM     63  H   LEU A   2      14.165  29.041  -4.273  0.00  0.00    +0.150 HD
BRANCH  60  64
ATOM     64  CA  LEU A   1      12.388  27.157  -4.099  0.00  0.00    +0.145 C 
BRANCH  64  65
ATOM     65  N   LEU A   1      11.950  26.176  -5.075  0.00  0.00    -0.238 NA
ATOM     66  H   LEU A   1      11.755  25.204  -4.762  0.00  0.00    +0.142 HD
ENDBRANCH  64  65
BRANCH  64  67
ATOM     67  CB  LEU A   1      11.609  26.921  -2.804  0.00  0.00    +0.026 C 
BRANCH  67  68
ATOM     68  CG  LEU A   1      11.619  27.954  -1.685  0.00  0.00    +0.002 C 
ATOM     69  CD2 LEU A   1      10.807  27.411  -0.516  0.00  0.00    +0.000 C 
ATOM     70  CD1 LEU A   1      11.019  29.261  -2.180  0.00  0.00    +0.000 C 
ENDBRANCH  67  68
ENDBRANCH  64  67
ENDBRANCH  60  64
ENDBRANCH  59  62
BRANCH  59  71
ATOM     71  CB  LEU A   2      16.708  29.461  -4.117  0.00  0.00    +0.029 C 
BRANCH  71  72
ATOM     72  CG  LEU A   2      16.602  29.764  -5.614  0.00  0.00    +0.002 C 
ATOM     73  CD2 LEU A   2      17.461  30.972  -5.941  0.00  0.00    +0.000 C 
ATOM     74  CD1 LEU A   2      17.062  28.562  -6.420  0.00  0.00    +0.000 C 
ENDBRANCH  71  72
ENDBRANCH  59  71
ENDBRANCH  55  59
ENDBRANCH  54  57
BRANCH  54  75
ATOM     75  CB  ASP A   3      15.682  25.460   0.086  0.00  0.00    +0.143 C 
BRANCH  75  76
ATOM     76  CG  ASP A   3      15.242  25.314   1.524  0.00  0.00    +0.367 C 
ATOM     77  OD2 ASP A   3      15.861  25.915   2.425  0.00  0.00    -0.246 OA
ATOM     78  OD1 ASP A   3      14.265  24.570   1.751  0.00  0.00    -0.246 OA
ENDBRANCH  75  76
ENDBRANCH  54  75
ENDBRANCH  50  54
ENDBRANCH  49  51
BRANCH  49  79
ATOM     79  CB  THR A   4      20.376  28.742   2.174  0.00  0.00    +0.137 C 
ATOM     80  CG2 THR A   4      20.652  29.588   0.929  0.00  0.00    +0.034 C 
BRANCH  79  81
ATOM     81  OG1 THR A   4      19.468  29.431   3.042  0.00  0.00    -0.382 OA
ATOM     82  HG1 THR A   4      19.316  28.889   3.856  0.00  0.00    +0.210 HD
ENDBRANCH  79  81
ENDBRANCH  49  79
ENDBRANCH  45  49
ENDBRANCH  44  47
ENDBRANCH   1  44
TORSDOF 35
REMARK  Name = ../refined-set-2016/4a4q/4a4q_pocket.pdb
REMARK  241 active torsions:
REMARK  status: ('A' for Active; 'I' for Inactive)
REMARK    1  A    between atoms: _1  and  _3
REMARK    2  A    between atoms: _3  and  _4
REMARK    3  A    between atoms: _3  and  _6
REMARK    4  A    between atoms: _6  and  _7
REMARK    5  A    between atoms: _7  and  _8
REMARK    6  A    between atoms: _8  and  _9
REMARK    7  A    between atoms: _18  and  _20
REMARK    8  A    between atoms: _20  and  _21
REMARK    9  A    between atoms: _20  and  _23
REMARK   10  A    between atoms: _23  and  _24
REMARK   11  A    between atoms: _27  and  _29
REMARK   12  A    between atoms: _29  and  _30
REMARK   13  A    between atoms: _29  and  _32
REMARK   14  A    between atoms: _32  and  _33
REMARK   15  A    between atoms: _36  and  _38
REMARK   16  A    between atoms: _38  and  _39
REMARK   17  A    between atoms: _38  and  _41
REMARK   18  A    between atoms: _41  and  _42
REMARK   19  A    between atoms: _45  and  _47
REMARK   20  A    between atoms: _47  and  _48
REMARK   21  A    between atoms: _47  and  _50
REMARK   22  A    between atoms: _50  and  _51
REMARK   23  A    between atoms: _54  and  _56
REMARK   24  A    between atoms: _56  and  _57
REMARK   25  A    between atoms: _59  and  _61
REMARK   26  A    between atoms: _61  and  _62
REMARK   27  A    between atoms: _65  and  _67
REMARK   28  A    between atoms: _67  and  _68
REMARK   29  A    between atoms: _67  and  _70
REMARK   30  A    between atoms: _70  and  _71
REMARK   31  A    between atoms: _74  and  _76
REMARK   32  A    between atoms: _76  and  _77
REMARK   33  A    between atoms: _76  and  _79
REMARK   34  A    between atoms: _79  and  _80
REMARK   35  A    between atoms: _83  and  _85
REMARK   36  A    between atoms: _85  and  _86
REMARK   37  A    between atoms: _85  and  _88
REMARK   38  A    between atoms: _88  and  _89
REMARK   39  A    between atoms: _92  and  _94
REMARK   40  A    between atoms: _94  and  _95
REMARK   41  A    between atoms: _94  and  _97
REMARK   42  A    between atoms: _100  and  _102
REMARK   43  A    between atoms: _102  and  _103
REMARK   44  A    between atoms: _102  and  _105
REMARK   45  A    between atoms: _105  and  _106
REMARK   46  A    between atoms: _109  and  _111
REMARK   47  A    between atoms: _111  and  _112
REMARK   48  A    between atoms: _111  and  _114
REMARK   49  A    between atoms: _114  and  _115
REMARK   50  A    between atoms: _115  and  _116
REMARK   51  A    between atoms: _119  and  _121
REMARK   52  A    between atoms: _121  and  _122
REMARK   53  A    between atoms: _121  and  _124
REMARK   54  A    between atoms: _124  and  _125
REMARK   55  A    between atoms: _125  and  _126
REMARK   56  A    between atoms: _126  and  _127
REMARK   57  A    between atoms: _127  and  _128
REMARK   58  A    between atoms: _132  and  _134
REMARK   59  A    between atoms: _134  and  _135
REMARK   60  A    between atoms: _134  and  _137
REMARK   61  A    between atoms: _137  and  _138
REMARK   62  A    between atoms: _138  and  _139
REMARK   63  A    between atoms: _141  and  _143
REMARK   64  A    between atoms: _143  and  _144
REMARK   65  A    between atoms: _143  and  _146
REMARK   66  A    between atoms: _146  and  _147
REMARK   67  A    between atoms: _150  and  _152
REMARK   68  A    between atoms: _152  and  _153
REMARK   69  A    between atoms: _155  and  _157
REMARK   70  A    between atoms: _157  and  _158
REMARK   71  A    between atoms: _160  and  _162
REMARK   72  A    between atoms: _162  and  _163
REMARK   73  A    between atoms: _162  and  _165
REMARK   74  A    between atoms: _165  and  _166
REMARK   75  A    between atoms: _169  and  _171
REMARK   76  A    between atoms: _171  and  _172
REMARK   77  A    between atoms: _174  and  _176
REMARK   78  A    between atoms: _176  and  _177
REMARK   79  A    between atoms: _179  and  _181
REMARK   80  A    between atoms: _181  and  _182
REMARK   81  A    between atoms: _181  and  _184
REMARK   82  A    between atoms: _184  and  _185
REMARK   83  A    between atoms: _191  and  _193
REMARK   84  A    between atoms: _193  and  _194
REMARK   85  A    between atoms: _193  and  _196
REMARK   86  A    between atoms: _196  and  _197
REMARK   87  A    between atoms: _200  and  _202
REMARK   88  A    between atoms: _202  and  _203
REMARK   89  A    between atoms: _202  and  _205
REMARK   90  A    between atoms: _208  and  _210
REMARK   91  A    between atoms: _210  and  _211
REMARK   92  A    between atoms: _210  and  _213
REMARK   93  A    between atoms: _213  and  _214
REMARK   94  A    between atoms: _217  and  _219
REMARK   95  A    between atoms: _219  and  _220
REMARK   96  A    between atoms: _219  and  _222
REMARK   97  A    between atoms: _222  and  _223
REMARK   98  A    between atoms: _227  and  _228
REMARK   99  A    between atoms: _233  and  _235
REMARK  100  A    between atoms: _235  and  _236
REMARK  101  A    between atoms: _235  and  _238
REMARK  102  A    between atoms: _238  and  _239
REMARK  103  A    between atoms: _242  and  _244
REMARK  104  A    between atoms: _244  and  _245
REMARK  105  A    between atoms: _244  and  _247
REMARK  106  A    between atoms: _247  and  _248
REMARK  107  A    between atoms: _253  and  _255
REMARK  108  A    between atoms: _255  and  _256
REMARK  109  A    between atoms: _255  and  _258
REMARK  110  A    between atoms: _261  and  _263
REMARK  111  A    between atoms: _263  and  _264
REMARK  112  A    between atoms: _263  and  _266
REMARK  113  A    between atoms: _266  and  _267
REMARK  114  A    between atoms: _270  and  _272
REMARK  115  A    between atoms: _272  and  _273
REMARK  116  A    between atoms: _275  and  _277
REMARK  117  A    between atoms: _277  and  _278
REMARK  118  A    between atoms: _277  and  _280
REMARK  119  A    between atoms: _280  and  _281
REMARK  120  A    between atoms: _281  and  _282
REMARK  121  A    between atoms: _282  and  _283
REMARK  122  A    between atoms: _292  and  _294
REMARK  123  A    between atoms: _294  and  _295
REMARK  124  A    between atoms: _294  and  _297
REMARK  125  A    between atoms: _297  and  _298
REMARK  126  A    between atoms: _303  and  _305
REMARK  127  A    between atoms: _305  and  _306
REMARK  128  A    between atoms: _305  and  _308
REMARK  129  A    between atoms: _308  and  _309
REMARK  130  A    between atoms: _309  and  _310
REMARK  131  A    between atoms: _310  and  _311
REMARK  132  A    between atoms: _320  and  _322
REMARK  133  A    between atoms: _322  and  _323
REMARK  134  A    between atoms: _322  and  _325
REMARK  135  A    between atoms: _325  and  _326
REMARK  136  A    between atoms: _329  and  _331
REMARK  137  A    between atoms: _331  and  _332
REMARK  138  A    between atoms: _331  and  _334
REMARK  139  A    between atoms: _334  and  _335
REMARK  140  A    between atoms: _338  and  _340
REMARK  141  A    between atoms: _340  and  _341
REMARK  142  A    between atoms: _340  and  _343
REMARK  143  A    between atoms: _343  and  _344
REMARK  144  A    between atoms: _347  and  _349
REMARK  145  A    between atoms: _349  and  _350
REMARK  146  A    between atoms: _349  and  _352
REMARK  147  A    between atoms: _352  and  _353
REMARK  148  A    between atoms: _356  and  _358
REMARK  149  A    between atoms: _358  and  _359
REMARK  150  A    between atoms: _358  and  _361
REMARK  151  A    between atoms: _361  and  _362
REMARK  152  A    between atoms: _365  and  _367
REMARK  153  A    between atoms: _367  and  _368
REMARK  154  A    between atoms: _370  and  _372
REMARK  155  A    between atoms: _372  and  _373
REMARK  156  A    between atoms: _376  and  _378
REMARK  157  A    between atoms: _378  and  _379
REMARK  158  A    between atoms: _378  and  _381
REMARK  159  A    between atoms: _381  and  _382
REMARK  160  A    between atoms: _385  and  _387
REMARK  161  A    between atoms: _387  and  _388
REMARK  162  A    between atoms: _387  and  _390
REMARK  163  A    between atoms: _390  and  _391
REMARK  164  A    between atoms: _394  and  _396
REMARK  165  A    between atoms: _396  and  _397
REMARK  166  A    between atoms: _396  and  _399
REMARK  167  A    between atoms: _399  and  _400
REMARK  168  A    between atoms: _403  and  _405
REMARK  169  A    between atoms: _405  and  _406
REMARK  170  A    between atoms: _405  and  _408
REMARK  171  A    between atoms: _411  and  _413
REMARK  172  A    between atoms: _413  and  _414
REMARK  173  A    between atoms: _413  and  _416
REMARK  174  A    between atoms: _416  and  _417
REMARK  175  A    between atoms: _417  and  _418
REMARK  176  A    between atoms: _418  and  _419
REMARK  177  A    between atoms: _419  and  _420
REMARK  178  A    between atoms: _424  and  _426
REMARK  179  A    between atoms: _426  and  _427
REMARK  180  A    between atoms: _426  and  _429
REMARK  181  A    between atoms: _429  and  _430
REMARK  182  A    between atoms: _430  and  _431
REMARK  183  A    between atoms: _433  and  _435
REMARK  184  A    between atoms: _435  and  _436
REMARK  185  A    between atoms: _435  and  _438
REMARK  186  A    between atoms: _438  and  _439
REMARK  187  A    between atoms: _442  and  _444
REMARK  188  A    between atoms: _444  and  _445
REMARK  189  A    between atoms: _447  and  _449
REMARK  190  A    between atoms: _449  and  _450
REMARK  191  A    between atoms: _452  and  _454
REMARK  192  A    between atoms: _454  and  _455
REMARK  193  A    between atoms: _454  and  _457
REMARK  194  A    between atoms: _457  and  _458
REMARK  195  A    between atoms: _461  and  _463
REMARK  196  A    between atoms: _463  and  _464
REMARK  197  A    between atoms: _466  and  _468
REMARK  198  A    between atoms: _468  and  _469
REMARK  199  A    between atoms: _471  and  _473
REMARK  200  A    between atoms: _473  and  _474
REMARK  201  A    between atoms: _473  and  _476
REMARK  202  A    between atoms: _476  and  _477
REMARK  203  A    between atoms: _483  and  _485
REMARK  204  A    between atoms: _485  and  _486
REMARK  205  A    between atoms: _485  and  _488
REMARK  206  A    between atoms: _488  and  _489
REMARK  207  A    between atoms: _492  and  _494
REMARK  208  A    between atoms: _494  and  _495
REMARK  209  A    between atoms: _494  and  _497
REMARK  210  A    between atoms: _500  and  _502
REMARK  211  A    between atoms: _502  and  _503
REMARK  212  A    between atoms: _502  and  _505
REMARK  213  A    between atoms: _505  and  _506
REMARK  214  A    between atoms: _509  and  _511
REMARK  215  A    between atoms: _511  and  _512
REMARK  216  A    between atoms: _511  and  _514
REMARK  217  A    between atoms: _514  and  _515
REMARK  218  A    between atoms: _519  and  _520
REMARK  219  A    between atoms: _525  and  _527
REMARK  220  A    between atoms: _527  and  _528
REMARK  221  A    between atoms: _527  and  _530
REMARK  222  A    between atoms: _530  and  _531
REMARK  223  A    between atoms: _534  and  _536
REMARK  224  A    between atoms: _536  and  _537
REMARK  225  A    between atoms: _536  and  _539
REMARK  226  A    between atoms: _539  and  _540
REMARK  227  A    between atoms: _545  and  _547
REMARK  228  A    between atoms: _547  and  _548
REMARK  229  A    between atoms: _547  and  _550
REMARK  230  A    between atoms: _553  and  _555
REMARK  231  A    between atoms: _555  and  _556
REMARK  232  A    between atoms: _555  and  _558
REMARK  233  A    between atoms: _558  and  _559
REMARK  234  A    between atoms: _562  and  _564
REMARK  235  A    between atoms: _564  and  _565
REMARK  236  A    between atoms: _567  and  _569
REMARK  237  A    between atoms: _569  and  _570
REMARK  238  A    between atoms: _569  and  _572
REMARK  239  A    between atoms: _572  and  _573
REMARK  240  A    between atoms: _573  and  _574
REMARK  241  A    between atoms: _574  and  _575
REMARK                            x       y       z     vdW  Elec       q    Type
REMARK                         _______ _______ _______ _____ _____    ______ ____
ROOT
ATOM      1  C   GLY A   5      11.928  18.063   9.237  0.00  0.00    +0.243 C 
ATOM      2  O   GLY A   5      12.022  17.348  10.235  0.00  0.00    -0.273 OA
ATOM      3  N   ILE A   6      11.258  19.211   9.225  0.00  0.00    -0.297 N 
ATOM      4  H   ILE A   6      11.206  19.750   8.337  0.00  0.00    +0.150 HD
ENDROOT
BRANCH   3   5
ATOM      5  CA  ILE A   6      10.592  19.744  10.409  0.00  0.00    +0.149 C 
BRANCH   5   6
ATOM      6  C   ILE A   6       9.600  18.780  11.051  0.00  0.00    +0.241 C 
ATOM      7  O   ILE A   6       9.538  18.674  12.276  0.00  0.00    -0.273 OA
ATOM      8  N   GLY A   7       8.840  18.064  10.230  0.00  0.00    -0.295 N 
ATOM      9  H   GLY A   7       8.957  18.155   9.201  0.00  0.00    +0.150 HD
BRANCH   8  10
ATOM     10  CA  GLY A   7       7.844  17.153  10.771  0.00  0.00    +0.176 C 
BRANCH  10  11
ATOM     11  C   GLY A   7       8.225  15.692  10.894  0.00  0.00    +0.243 C 
ATOM     12  O   GLY A   7       7.412  14.882  11.342  0.00  0.00    -0.273 OA
ATOM     13  N   GLY A   8       9.448  15.347  10.512  0.00  0.00    -0.295 N 
ATOM     14  H   GLY A   8      10.100  16.073  10.152  0.00  0.00    +0.150 HD
BRANCH  13  15
ATOM     15  CA  GLY A   8       9.882  13.964  10.593  0.00  0.00    +0.176 C 
BRANCH  15  16
ATOM     16  C   GLY A   8      10.681  13.556   9.369  0.00  0.00    +0.243 C 
ATOM     17  N   PHE A   9      10.711  12.259   9.071  0.00  0.00    -0.297 N 
ATOM     18  H   PHE A   9      10.190  11.592   9.675  0.00  0.00    +0.150 HD
ATOM     19  O   GLY A   8      11.257  14.407   8.702  0.00  0.00    -0.273 OA
BRANCH  17  20
ATOM     20  CA  PHE A   9      11.454  11.741   7.921  0.00  0.00    +0.153 C 
BRANCH  20  21
ATOM     21  C   PHE A   9      10.554  11.185   6.815  0.00  0.00    +0.241 C 
ATOM     22  O   PHE A   9       9.428  10.759   7.069  0.00  0.00    -0.273 OA
ATOM     23  N   ILE A  10      11.056  11.198   5.584  0.00  0.00    -0.298 N 
ATOM     24  H   ILE A  10      11.996  11.613   5.422  0.00  0.00    +0.150 HD
BRANCH  23  25
ATOM     25  CA  ILE A  10      10.318  10.643   4.457  0.00  0.00    +0.137 C 
BRANCH  25  26
ATOM     26  C   ILE A  10      11.296   9.855   3.601  0.00  0.00    +0.227 C 
ATOM     27  O   ILE A  10      12.508  10.079   3.661  0.00  0.00    -0.286 OA
ENDBRANCH  25  26
BRANCH  25  28
ATOM     28  CB  ILE A  10       9.650  11.719   3.571  0.00  0.00    +0.026 C 
ATOM     29  CG2 ILE A  10       8.729  12.592   4.413  0.00  0.00    +0.002 C 
BRANCH  28  30
ATOM     30  CG1 ILE A  10      10.711  12.559   2.858  0.00  0.00    +0.002 C 
ATOM     31  CD1 ILE A  10      10.143  13.421   1.753  0.00  0.00    +0.000 C 
ENDBRANCH  28  30
ENDBRANCH  25  28
ENDBRANCH  23  25
ENDBRANCH  20  21
BRANCH  20  32
ATOM     32  CB  PHE A   9      12.403  10.620   8.361  0.00  0.00    +0.055 C 
BRANCH  32  33
ATOM     33  CG  PHE A   9      13.624  11.095   9.097  0.00  0.00    -0.020 A 
ATOM     34  CD2 PHE A   9      13.520  11.669  10.359  0.00  0.00    -0.004 A 
ATOM     35  CE2 PHE A   9      14.660  12.091  11.046  0.00  0.00    -0.000 A 
ATOM     36  CZ  PHE A   9      15.916  11.940  10.466  0.00  0.00    -0.000 A 
ATOM     37  CE1 PHE A   9      16.031  11.369   9.205  0.00  0.00    -0.000 A 
ATOM     38  CD1 PHE A   9      14.887  10.950   8.528  0.00  0.00    -0.004 A 
ENDBRANCH  32  33
ENDBRANCH  20  32
ENDBRANCH  17  20
ENDBRANCH  15  16
ENDBRANCH  13  15
ENDBRANCH  10  11
ENDBRANCH   8  10
ENDBRANCH   5   6
BRANCH   5  39
ATOM     39  CB  ILE A   6       9.847  21.060  10.074  0.00  0.00    +0.027 C 
ATOM     40  CG2 ILE A   6       9.031  21.529  11.269  0.00  0.00    +0.002 C 
BRANCH  39  41
ATOM     41  CG1 ILE A   6      10.854  22.140   9.674  0.00  0.00    +0.002 C 
ATOM     42  CD1 ILE A   6      11.859  22.480  10.757  0.00  0.00    +0.000 C 
ENDBRANCH  39  41
ENDBRANCH   5  39
ENDBRANCH   3   5
BRANCH   1  43
ATOM     43  CA  GLY A   5      12.579  17.653   7.931  0.00  0.00    +0.176 C 
BRANCH  43  45
ATOM     44  C   GLY A   4      14.254  15.920   7.709  0.00  0.00    +0.243 C 
ATOM     45  N   GLY A   5      13.003  16.269   7.990  0.00  0.00    -0.295 N 
ATOM     46  H   GLY A   5      12.316  15.535   8.257  0.00  0.00    +0.150 HD
ATOM     47  O   GLY A   4      15.121  16.726   7.376  0.00  0.00    -0.273 OA
BRANCH  44  48
ATOM     48  CA  GLY A   4      14.565  14.444   7.826  0.00  0.00    +0.176 C 
BRANCH  48  50
ATOM     49  C   ILE A   3      14.761  13.211   5.765  0.00  0.00    +0.241 C 
ATOM     50  N   GLY A   4      15.350  13.897   6.737  0.00  0.00    -0.295 N 
ATOM     51  H   GLY A   4      16.380  14.043   6.717  0.00  0.00    +0.150 HD
ATOM     52  O   ILE A   3      13.548  13.015   5.723  0.00  0.00    -0.273 OA
BRANCH  49  53
ATOM     53  CA  ILE A   3      15.681  12.660   4.683  0.00  0.00    +0.149 C 
BRANCH  53  56
ATOM     54  C   MET A   2      16.211  10.302   4.567  0.00  0.00    +0.241 C 
ATOM     55  O   MET A   2      17.343  10.493   5.002  0.00  0.00    -0.273 OA
ATOM     56  N   ILE A   3      15.339  11.281   4.364  0.00  0.00    -0.297 N 
ATOM     57  H   ILE A   3      14.401  11.061   3.973  0.00  0.00    +0.150 HD
BRANCH  54  58
ATOM     58  CA  MET A   2      15.763   8.899   4.207  0.00  0.00    +0.149 C 
BRANCH  58  60
ATOM     59  C   LYS A   1      16.424   8.263   1.954  0.00  0.00    +0.238 C 
ATOM     60  N   MET A   2      16.733   8.433   3.230  0.00  0.00    -0.297 N 
ATOM     61  H   MET A   2      17.703   8.226   3.544  0.00  0.00    +0.150 HD
ATOM     62  O   LYS A   1      15.291   8.419   1.504  0.00  0.00    -0.274 OA
BRANCH  59  63
ATOM     63  CA  LYS A   1      17.562   7.811   1.067  0.00  0.00    +0.145 C 
BRANCH  63  64
ATOM     64  N   LYS A   1      17.063   6.831   0.121  0.00  0.00    -0.238 NA
ATOM     65  H   LYS A   1      16.056   6.835  -0.138  0.00  0.00    +0.142 HD
ENDBRANCH  63  64
BRANCH  63  66
ATOM     66  CB  LYS A   1      18.190   9.028   0.383  0.00  0.00    +0.026 C 
BRANCH  66  67
ATOM     67  CG  LYS A   1      18.865   9.950   1.401  0.00  0.00    -0.000 C 
BRANCH  67  68
ATOM     68  CD  LYS A   1      19.707  11.054   0.780  0.00  0.00    -0.024 C 
BRANCH  68  69
ATOM     69  CE  LYS A   1      20.482  11.791   1.870  0.00  0.00    -0.086 C 
BRANCH  69  70
ATOM     70  NZ  LYS A   1      21.409  12.819   1.333  0.00  0.00    +0.380 N 
ATOM     71  HZ1 LYS A   1      21.904  13.283   2.121  0.00  0.00    -0.089 HD
ATOM     72  HZ2 LYS A   1      20.867  13.527   0.798  0.00  0.00    -0.089 HD
ATOM     73  HZ3 LYS A   1      22.103  12.365   0.705  0.00  0.00    -0.089 HD
ENDBRANCH  69  70
ENDBRANCH  68  69
ENDBRANCH  67  68
ENDBRANCH  66  67
ENDBRANCH  63  66
ENDBRANCH  59  63
ENDBRANCH  58  60
BRANCH  58  74
ATOM     74  CB  MET A   2      15.793   8.020   5.459  0.00  0.00    +0.041 C 
BRANCH  74  75
ATOM     75  CG  MET A   2      14.987   6.746   5.350  0.00  0.00    +0.060 C 
BRANCH  75  76
ATOM     76  SD  MET A   2      13.229   7.098   5.448  0.00  0.00    -0.139 S 
ATOM     77  CE  MET A   2      12.965   6.981   7.218  0.00  0.00    +0.069 C 
ENDBRANCH  75  76
ENDBRANCH  74  75
ENDBRANCH  58  74
ENDBRANCH  54  58
ENDBRANCH  53  56
BRANCH  53  78
ATOM     78  CB  ILE A   3      15.609  13.554   3.428  0.00  0.00    +0.027 C 
ATOM     79  CG2 ILE A   3      16.678  13.114   2.429  0.00  0.00    +0.002 C 
BRANCH  78  80
ATOM     80  CG1 ILE A   3      14.216  13.480   2.799  0.00  0.00    +0.002 C 
ATOM     81  CD1 ILE A   3      14.046  14.386   1.588  0.00  0.00    +0.000 C 
ENDBRANCH  78  80
ENDBRANCH  53  78
ENDBRANCH  49  53
ENDBRANCH  48  50
ENDBRANCH  44  48
ENDBRANCH  43  45
ENDBRANCH   1  43
TORSDOF 36
REMARK  Name = ../refined-set-2016/4a4q/4a4q_pocket.pdb
REMARK  241 active torsions:
REMARK  status: ('A' for Active; 'I' for Inactive)
REMARK    1  A    between atoms: _1  and  _3
REMARK    2  A    between atoms: _3  and  _4
REMARK    3  A    between atoms: _3  and  _6
REMARK    4  A    between atoms: _6  and  _7
REMARK    5  A    between atoms: _7  and  _8
REMARK    6  A    between atoms: _8  and  _9
REMARK    7  A    between atoms: _18  and  _20
REMARK    8  A    between atoms: _20  and  _21
REMARK    9  A    between atoms: _20  and  _23
REMARK   10  A    between atoms: _23  and  _24
REMARK   11  A    between atoms: _27  and  _29
REMARK   12  A    between atoms: _29  and  _30
REMARK   13  A    between atoms: _29  and  _32
REMARK   14  A    between atoms: _32  and  _33
REMARK   15  A    between atoms: _36  and  _38
REMARK   16  A    between atoms: _38  and  _39
REMARK   17  A    between atoms: _38  and  _41
REMARK   18  A    between atoms: _41  and  _42
REMARK   19  A    between atoms: _45  and  _47
REMARK   20  A    between atoms: _47  and  _48
REMARK   21  A    between atoms: _47  and  _50
REMARK   22  A    between atoms: _50  and  _51
REMARK   23  A    between atoms: _54  and  _56
REMARK   24  A    between atoms: _56  and  _57
REMARK   25  A    between atoms: _59  and  _61
REMARK   26  A    between atoms: _61  and  _62
REMARK   27  A    between atoms: _65  and  _67
REMARK   28  A    between atoms: _67  and  _68
REMARK   29  A    between atoms: _67  and  _70
REMARK   30  A    between atoms: _70  and  _71
REMARK   31  A    between atoms: _74  and  _76
REMARK   32  A    between atoms: _76  and  _77
REMARK   33  A    between atoms: _76  and  _79
REMARK   34  A    between atoms: _79  and  _80
REMARK   35  A    between atoms: _83  and  _85
REMARK   36  A    between atoms: _85  and  _86
REMARK   37  A    between atoms: _85  and  _88
REMARK   38  A    between atoms: _88  and  _89
REMARK   39  A    between atoms: _92  and  _94
REMARK   40  A    between atoms: _94  and  _95
REMARK   41  A    between atoms: _94  and  _97
REMARK   42  A    between atoms: _100  and  _102
REMARK   43  A    between atoms: _102  and  _103
REMARK   44  A    between atoms: _102  and  _105
REMARK   45  A    between atoms: _105  and  _106
REMARK   46  A    between atoms: _109  and  _111
REMARK   47  A    between atoms: _111  and  _112
REMARK   48  A    between atoms: _111  and  _114
REMARK   49  A    between atoms: _114  and  _115
REMARK   50  A    between atoms: _115  and  _116
REMARK   51  A    between atoms: _119  and  _121
REMARK   52  A    between atoms: _121  and  _122
REMARK   53  A    between atoms: _121  and  _124
REMARK   54  A    between atoms: _124  and  _125
REMARK   55  A    between atoms: _125  and  _126
REMARK   56  A    between atoms: _126  and  _127
REMARK   57  A    between atoms: _127  and  _128
REMARK   58  A    between atoms: _132  and  _134
REMARK   59  A    between atoms: _134  and  _135
REMARK   60  A    between atoms: _134  and  _137
REMARK   61  A    between atoms: _137  and  _138
REMARK   62  A    between atoms: _138  and  _139
REMARK   63  A    between atoms: _141  and  _143
REMARK   64  A    between atoms: _143  and  _144
REMARK   65  A    between atoms: _143  and  _146
REMARK   66  A    between atoms: _146  and  _147
REMARK   67  A    between atoms: _150  and  _152
REMARK   68  A    between atoms: _152  and  _153
REMARK   69  A    between atoms: _155  and  _157
REMARK   70  A    between atoms: _157  and  _158
REMARK   71  A    between atoms: _160  and  _162
REMARK   72  A    between atoms: _162  and  _163
REMARK   73  A    between atoms: _162  and  _165
REMARK   74  A    between atoms: _165  and  _166
REMARK   75  A    between atoms: _169  and  _171
REMARK   76  A    between atoms: _171  and  _172
REMARK   77  A    between atoms: _174  and  _176
REMARK   78  A    between atoms: _176  and  _177
REMARK   79  A    between atoms: _179  and  _181
REMARK   80  A    between atoms: _181  and  _182
REMARK   81  A    between atoms: _181  and  _184
REMARK   82  A    between atoms: _184  and  _185
REMARK   83  A    between atoms: _191  and  _193
REMARK   84  A    between atoms: _193  and  _194
REMARK   85  A    between atoms: _193  and  _196
REMARK   86  A    between atoms: _196  and  _197
REMARK   87  A    between atoms: _200  and  _202
REMARK   88  A    between atoms: _202  and  _203
REMARK   89  A    between atoms: _202  and  _205
REMARK   90  A    between atoms: _208  and  _210
REMARK   91  A    between atoms: _210  and  _211
REMARK   92  A    between atoms: _210  and  _213
REMARK   93  A    between atoms: _213  and  _214
REMARK   94  A    between atoms: _217  and  _219
REMARK   95  A    between atoms: _219  and  _220
REMARK   96  A    between atoms: _219  and  _222
REMARK   97  A    between atoms: _222  and  _223
REMARK   98  A    between atoms: _227  and  _228
REMARK   99  A    between atoms: _233  and  _235
REMARK  100  A    between atoms: _235  and  _236
REMARK  101  A    between atoms: _235  and  _238
REMARK  102  A    between atoms: _238  and  _239
REMARK  103  A    between atoms: _242  and  _244
REMARK  104  A    between atoms: _244  and  _245
REMARK  105  A    between atoms: _244  and  _247
REMARK  106  A    between atoms: _247  and  _248
REMARK  107  A    between atoms: _253  and  _255
REMARK  108  A    between atoms: _255  and  _256
REMARK  109  A    between atoms: _255  and  _258
REMARK  110  A    between atoms: _261  and  _263
REMARK  111  A    between atoms: _263  and  _264
REMARK  112  A    between atoms: _263  and  _266
REMARK  113  A    between atoms: _266  and  _267
REMARK  114  A    between atoms: _270  and  _272
REMARK  115  A    between atoms: _272  and  _273
REMARK  116  A    between atoms: _275  and  _277
REMARK  117  A    between atoms: _277  and  _278
REMARK  118  A    between atoms: _277  and  _280
REMARK  119  A    between atoms: _280  and  _281
REMARK  120  A    between atoms: _281  and  _282
REMARK  121  A    between atoms: _282  and  _283
REMARK  122  A    between atoms: _292  and  _294
REMARK  123  A    between atoms: _294  and  _295
REMARK  124  A    between atoms: _294  and  _297
REMARK  125  A    between atoms: _297  and  _298
REMARK  126  A    between atoms: _303  and  _305
REMARK  127  A    between atoms: _305  and  _306
REMARK  128  A    between atoms: _305  and  _308
REMARK  129  A    between atoms: _308  and  _309
REMARK  130  A    between atoms: _309  and  _310
REMARK  131  A    between atoms: _310  and  _311
REMARK  132  A    between atoms: _320  and  _322
REMARK  133  A    between atoms: _322  and  _323
REMARK  134  A    between atoms: _322  and  _325
REMARK  135  A    between atoms: _325  and  _326
REMARK  136  A    between atoms: _329  and  _331
REMARK  137  A    between atoms: _331  and  _332
REMARK  138  A    between atoms: _331  and  _334
REMARK  139  A    between atoms: _334  and  _335
REMARK  140  A    between atoms: _338  and  _340
REMARK  141  A    between atoms: _340  and  _341
REMARK  142  A    between atoms: _340  and  _343
REMARK  143  A    between atoms: _343  and  _344
REMARK  144  A    between atoms: _347  and  _349
REMARK  145  A    between atoms: _349  and  _350
REMARK  146  A    between atoms: _349  and  _352
REMARK  147  A    between atoms: _352  and  _353
REMARK  148  A    between atoms: _356  and  _358
REMARK  149  A    between atoms: _358  and  _359
REMARK  150  A    between atoms: _358  and  _361
REMARK  151  A    between atoms: _361  and  _362
REMARK  152  A    between atoms: _365  and  _367
REMARK  153  A    between atoms: _367  and  _368
REMARK  154  A    between atoms: _370  and  _372
REMARK  155  A    between atoms: _372  and  _373
REMARK  156  A    between atoms: _376  and  _378
REMARK  157  A    between atoms: _378  and  _379
REMARK  158  A    between atoms: _378  and  _381
REMARK  159  A    between atoms: _381  and  _382
REMARK  160  A    between atoms: _385  and  _387
REMARK  161  A    between atoms: _387  and  _388
REMARK  162  A    between atoms: _387  and  _390
REMARK  163  A    between atoms: _390  and  _391
REMARK  164  A    between atoms: _394  and  _396
REMARK  165  A    between atoms: _396  and  _397
REMARK  166  A    between atoms: _396  and  _399
REMARK  167  A    between atoms: _399  and  _400
REMARK  168  A    between atoms: _403  and  _405
REMARK  169  A    between atoms: _405  and  _406
REMARK  170  A    between atoms: _405  and  _408
REMARK  171  A    between atoms: _411  and  _413
REMARK  172  A    between atoms: _413  and  _414
REMARK  173  A    between atoms: _413  and  _416
REMARK  174  A    between atoms: _416  and  _417
REMARK  175  A    between atoms: _417  and  _418
REMARK  176  A    between atoms: _418  and  _419
REMARK  177  A    between atoms: _419  and  _420
REMARK  178  A    between atoms: _424  and  _426
REMARK  179  A    between atoms: _426  and  _427
REMARK  180  A    between atoms: _426  and  _429
REMARK  181  A    between atoms: _429  and  _430
REMARK  182  A    between atoms: _430  and  _431
REMARK  183  A    between atoms: _433  and  _435
REMARK  184  A    between atoms: _435  and  _436
REMARK  185  A    between atoms: _435  and  _438
REMARK  186  A    between atoms: _438  and  _439
REMARK  187  A    between atoms: _442  and  _444
REMARK  188  A    between atoms: _444  and  _445
REMARK  189  A    between atoms: _447  and  _449
REMARK  190  A    between atoms: _449  and  _450
REMARK  191  A    between atoms: _452  and  _454
REMARK  192  A    between atoms: _454  and  _455
REMARK  193  A    between atoms: _454  and  _457
REMARK  194  A    between atoms: _457  and  _458
REMARK  195  A    between atoms: _461  and  _463
REMARK  196  A    between atoms: _463  and  _464
REMARK  197  A    between atoms: _466  and  _468
REMARK  198  A    between atoms: _468  and  _469
REMARK  199  A    between atoms: _471  and  _473
REMARK  200  A    between atoms: _473  and  _474
REMARK  201  A    between atoms: _473  and  _476
REMARK  202  A    between atoms: _476  and  _477
REMARK  203  A    between atoms: _483  and  _485
REMARK  204  A    between atoms: _485  and  _486
REMARK  205  A    between atoms: _485  and  _488
REMARK  206  A    between atoms: _488  and  _489
REMARK  207  A    between atoms: _492  and  _494
REMARK  208  A    between atoms: _494  and  _495
REMARK  209  A    between atoms: _494  and  _497
REMARK  210  A    between atoms: _500  and  _502
REMARK  211  A    between atoms: _502  and  _503
REMARK  212  A    between atoms: _502  and  _505
REMARK  213  A    between atoms: _505  and  _506
REMARK  214  A    between atoms: _509  and  _511
REMARK  215  A    between atoms: _511  and  _512
REMARK  216  A    between atoms: _511  and  _514
REMARK  217  A    between atoms: _514  and  _515
REMARK  218  A    between atoms: _519  and  _520
REMARK  219  A    between atoms: _525  and  _527
REMARK  220  A    between atoms: _527  and  _528
REMARK  221  A    between atoms: _527  and  _530
REMARK  222  A    between atoms: _530  and  _531
REMARK  223  A    between atoms: _534  and  _536
REMARK  224  A    between atoms: _536  and  _537
REMARK  225  A    between atoms: _536  and  _539
REMARK  226  A    between atoms: _539  and  _540
REMARK  227  A    between atoms: _545  and  _547
REMARK  228  A    between atoms: _547  and  _548
REMARK  229  A    between atoms: _547  and  _550
REMARK  230  A    between atoms: _553  and  _555
REMARK  231  A    between atoms: _555  and  _556
REMARK  232  A    between atoms: _555  and  _558
REMARK  233  A    between atoms: _558  and  _559
REMARK  234  A    between atoms: _562  and  _564
REMARK  235  A    between atoms: _564  and  _565
REMARK  236  A    between atoms: _567  and  _569
REMARK  237  A    between atoms: _569  and  _570
REMARK  238  A    between atoms: _569  and  _572
REMARK  239  A    between atoms: _572  and  _573
REMARK  240  A    between atoms: _573  and  _574
REMARK  241  A    between atoms: _574  and  _575
REMARK                            x       y       z     vdW  Elec       q    Type
REMARK                         _______ _______ _______ _____ _____    ______ ____
ROOT
ATOM      1  CA  VAL A   1      12.888   9.387  -1.380  0.00  0.00    +0.133 C 
ENDROOT
BRANCH   1   2
ATOM      2  CB  VAL A   1      13.483  10.818  -1.314  0.00  0.00    +0.023 C 
ATOM      3  CG2 VAL A   1      12.579  11.726  -0.493  0.00  0.00    +0.002 C 
ATOM      4  CG1 VAL A   1      14.884  10.777  -0.724  0.00  0.00    +0.002 C 
ENDBRANCH   1   2
BRANCH   1   5
ATOM      5  N   VAL A   1      12.769   8.786  -0.061  0.00  0.00    -0.239 NA
ATOM      6  H   VAL A   1      13.609   8.377   0.396  0.00  0.00    +0.142 HD
ENDBRANCH   1   5
BRANCH   1   7
ATOM      7  C   VAL A   1      13.779   8.539  -2.271  0.00  0.00    +0.224 C 
ATOM      8  O   VAL A   1      14.526   7.685  -1.788  0.00  0.00    -0.287 OA
ENDBRANCH   1   7
TORSDOF 3
REMARK  Name = ../refined-set-2016/4a4q/4a4q_pocket.pdb
REMARK  241 active torsions:
REMARK  status: ('A' for Active; 'I' for Inactive)
REMARK    1  A    between atoms: _1  and  _3
REMARK    2  A    between atoms: _3  and  _4
REMARK    3  A    between atoms: _3  and  _6
REMARK    4  A    between atoms: _6  and  _7
REMARK    5  A    between atoms: _7  and  _8
REMARK    6  A    between atoms: _8  and  _9
REMARK    7  A    between atoms: _18  and  _20
REMARK    8  A    between atoms: _20  and  _21
REMARK    9  A    between atoms: _20  and  _23
REMARK   10  A    between atoms: _23  and  _24
REMARK   11  A    between atoms: _27  and  _29
REMARK   12  A    between atoms: _29  and  _30
REMARK   13  A    between atoms: _29  and  _32
REMARK   14  A    between atoms: _32  and  _33
REMARK   15  A    between atoms: _36  and  _38
REMARK   16  A    between atoms: _38  and  _39
REMARK   17  A    between atoms: _38  and  _41
REMARK   18  A    between atoms: _41  and  _42
REMARK   19  A    between atoms: _45  and  _47
REMARK   20  A    between atoms: _47  and  _48
REMARK   21  A    between atoms: _47  and  _50
REMARK   22  A    between atoms: _50  and  _51
REMARK   23  A    between atoms: _54  and  _56
REMARK   24  A    between atoms: _56  and  _57
REMARK   25  A    between atoms: _59  and  _61
REMARK   26  A    between atoms: _61  and  _62
REMARK   27  A    between atoms: _65  and  _67
REMARK   28  A    between atoms: _67  and  _68
REMARK   29  A    between atoms: _67  and  _70
REMARK   30  A    between atoms: _70  and  _71
REMARK   31  A    between atoms: _74  and  _76
REMARK   32  A    between atoms: _76  and  _77
REMARK   33  A    between atoms: _76  and  _79
REMARK   34  A    between atoms: _79  and  _80
REMARK   35  A    between atoms: _83  and  _85
REMARK   36  A    between atoms: _85  and  _86
REMARK   37  A    between atoms: _85  and  _88
REMARK   38  A    between atoms: _88  and  _89
REMARK   39  A    between atoms: _92  and  _94
REMARK   40  A    between atoms: _94  and  _95
REMARK   41  A    between atoms: _94  and  _97
REMARK   42  A    between atoms: _100  and  _102
REMARK   43  A    between atoms: _102  and  _103
REMARK   44  A    between atoms: _102  and  _105
REMARK   45  A    between atoms: _105  and  _106
REMARK   46  A    between atoms: _109  and  _111
REMARK   47  A    between atoms: _111  and  _112
REMARK   48  A    between atoms: _111  and  _114
REMARK   49  A    between atoms: _114  and  _115
REMARK   50  A    between atoms: _115  and  _116
REMARK   51  A    between atoms: _119  and  _121
REMARK   52  A    between atoms: _121  and  _122
REMARK   53  A    between atoms: _121  and  _124
REMARK   54  A    between atoms: _124  and  _125
REMARK   55  A    between atoms: _125  and  _126
REMARK   56  A    between atoms: _126  and  _127
REMARK   57  A    between atoms: _127  and  _128
REMARK   58  A    between atoms: _132  and  _134
REMARK   59  A    between atoms: _134  and  _135
REMARK   60  A    between atoms: _134  and  _137
REMARK   61  A    between atoms: _137  and  _138
REMARK   62  A    between atoms: _138  and  _139
REMARK   63  A    between atoms: _141  and  _143
REMARK   64  A    between atoms: _143  and  _144
REMARK   65  A    between atoms: _143  and  _146
REMARK   66  A    between atoms: _146  and  _147
REMARK   67  A    between atoms: _150  and  _152
REMARK   68  A    between atoms: _152  and  _153
REMARK   69  A    between atoms: _155  and  _157
REMARK   70  A    between atoms: _157  and  _158
REMARK   71  A    between atoms: _160  and  _162
REMARK   72  A    between atoms: _162  and  _163
REMARK   73  A    between atoms: _162  and  _165
REMARK   74  A    between atoms: _165  and  _166
REMARK   75  A    between atoms: _169  and  _171
REMARK   76  A    between atoms: _171  and  _172
REMARK   77  A    between atoms: _174  and  _176
REMARK   78  A    between atoms: _176  and  _177
REMARK   79  A    between atoms: _179  and  _181
REMARK   80  A    between atoms: _181  and  _182
REMARK   81  A    between atoms: _181  and  _184
REMARK   82  A    between atoms: _184  and  _185
REMARK   83  A    between atoms: _191  and  _193
REMARK   84  A    between atoms: _193  and  _194
REMARK   85  A    between atoms: _193  and  _196
REMARK   86  A    between atoms: _196  and  _197
REMARK   87  A    between atoms: _200  and  _202
REMARK   88  A    between atoms: _202  and  _203
REMARK   89  A    between atoms: _202  and  _205
REMARK   90  A    between atoms: _208  and  _210
REMARK   91  A    between atoms: _210  and  _211
REMARK   92  A    between atoms: _210  and  _213
REMARK   93  A    between atoms: _213  and  _214
REMARK   94  A    between atoms: _217  and  _219
REMARK   95  A    between atoms: _219  and  _220
REMARK   96  A    between atoms: _219  and  _222
REMARK   97  A    between atoms: _222  and  _223
REMARK   98  A    between atoms: _227  and  _228
REMARK   99  A    between atoms: _233  and  _235
REMARK  100  A    between atoms: _235  and  _236
REMARK  101  A    between atoms: _235  and  _238
REMARK  102  A    between atoms: _238  and  _239
REMARK  103  A    between atoms: _242  and  _244
REMARK  104  A    between atoms: _244  and  _245
REMARK  105  A    between atoms: _244  and  _247
REMARK  106  A    between atoms: _247  and  _248
REMARK  107  A    between atoms: _253  and  _255
REMARK  108  A    between atoms: _255  and  _256
REMARK  109  A    between atoms: _255  and  _258
REMARK  110  A    between atoms: _261  and  _263
REMARK  111  A    between atoms: _263  and  _264
REMARK  112  A    between atoms: _263  and  _266
REMARK  113  A    between atoms: _266  and  _267
REMARK  114  A    between atoms: _270  and  _272
REMARK  115  A    between atoms: _272  and  _273
REMARK  116  A    between atoms: _275  and  _277
REMARK  117  A    between atoms: _277  and  _278
REMARK  118  A    between atoms: _277  and  _280
REMARK  119  A    between atoms: _280  and  _281
REMARK  120  A    between atoms: _281  and  _282
REMARK  121  A    between atoms: _282  and  _283
REMARK  122  A    between atoms: _292  and  _294
REMARK  123  A    between atoms: _294  and  _295
REMARK  124  A    between atoms: _294  and  _297
REMARK  125  A    between atoms: _297  and  _298
REMARK  126  A    between atoms: _303  and  _305
REMARK  127  A    between atoms: _305  and  _306
REMARK  128  A    between atoms: _305  and  _308
REMARK  129  A    between atoms: _308  and  _309
REMARK  130  A    between atoms: _309  and  _310
REMARK  131  A    between atoms: _310  and  _311
REMARK  132  A    between atoms: _320  and  _322
REMARK  133  A    between atoms: _322  and  _323
REMARK  134  A    between atoms: _322  and  _325
REMARK  135  A    between atoms: _325  and  _326
REMARK  136  A    between atoms: _329  and  _331
REMARK  137  A    between atoms: _331  and  _332
REMARK  138  A    between atoms: _331  and  _334
REMARK  139  A    between atoms: _334  and  _335
REMARK  140  A    between atoms: _338  and  _340
REMARK  141  A    between atoms: _340  and  _341
REMARK  142  A    between atoms: _340  and  _343
REMARK  143  A    between atoms: _343  and  _344
REMARK  144  A    between atoms: _347  and  _349
REMARK  145  A    between atoms: _349  and  _350
REMARK  146  A    between atoms: _349  and  _352
REMARK  147  A    between atoms: _352  and  _353
REMARK  148  A    between atoms: _356  and  _358
REMARK  149  A    between atoms: _358  and  _359
REMARK  150  A    between atoms: _358  and  _361
REMARK  151  A    between atoms: _361  and  _362
REMARK  152  A    between atoms: _365  and  _367
REMARK  153  A    between atoms: _367  and  _368
REMARK  154  A    between atoms: _370  and  _372
REMARK  155  A    between atoms: _372  and  _373
REMARK  156  A    between atoms: _376  and  _378
REMARK  157  A    between atoms: _378  and  _379
REMARK  158  A    between atoms: _378  and  _381
REMARK  159  A    between atoms: _381  and  _382
REMARK  160  A    between atoms: _385  and  _387
REMARK  161  A    between atoms: _387  and  _388
REMARK  162  A    between atoms: _387  and  _390
REMARK  163  A    between atoms: _390  and  _391
REMARK  164  A    between atoms: _394  and  _396
REMARK  165  A    between atoms: _396  and  _397
REMARK  166  A    between atoms: _396  and  _399
REMARK  167  A    between atoms: _399  and  _400
REMARK  168  A    between atoms: _403  and  _405
REMARK  169  A    between atoms: _405  and  _406
REMARK  170  A    between atoms: _405  and  _408
REMARK  171  A    between atoms: _411  and  _413
REMARK  172  A    between atoms: _413  and  _414
REMARK  173  A    between atoms: _413  and  _416
REMARK  174  A    between atoms: _416  and  _417
REMARK  175  A    between atoms: _417  and  _418
REMARK  176  A    between atoms: _418  and  _419
REMARK  177  A    between atoms: _419  and  _420
REMARK  178  A    between atoms: _424  and  _426
REMARK  179  A    between atoms: _426  and  _427
REMARK  180  A    between atoms: _426  and  _429
REMARK  181  A    between atoms: _429  and  _430
REMARK  182  A    between atoms: _430  and  _431
REMARK  183  A    between atoms: _433  and  _435
REMARK  184  A    between atoms: _435  and  _436
REMARK  185  A    between atoms: _435  and  _438
REMARK  186  A    between atoms: _438  and  _439
REMARK  187  A    between atoms: _442  and  _444
REMARK  188  A    between atoms: _444  and  _445
REMARK  189  A    between atoms: _447  and  _449
REMARK  190  A    between atoms: _449  and  _450
REMARK  191  A    between atoms: _452  and  _454
REMARK  192  A    between atoms: _454  and  _455
REMARK  193  A    between atoms: _454  and  _457
REMARK  194  A    between atoms: _457  and  _458
REMARK  195  A    between atoms: _461  and  _463
REMARK  196  A    between atoms: _463  and  _464
REMARK  197  A    between atoms: _466  and  _468
REMARK  198  A    between atoms: _468  and  _469
REMARK  199  A    between atoms: _471  and  _473
REMARK  200  A    between atoms: _473  and  _474
REMARK  201  A    between atoms: _473  and  _476
REMARK  202  A    between atoms: _476  and  _477
REMARK  203  A    between atoms: _483  and  _485
REMARK  204  A    between atoms: _485  and  _486
REMARK  205  A    between atoms: _485  and  _488
REMARK  206  A    between atoms: _488  and  _489
REMARK  207  A    between atoms: _492  and  _494
REMARK  208  A    between atoms: _494  and  _495
REMARK  209  A    between atoms: _494  and  _497
REMARK  210  A    between atoms: _500  and  _502
REMARK  211  A    between atoms: _502  and  _503
REMARK  212  A    between atoms: _502  and  _505
REMARK  213  A    between atoms: _505  and  _506
REMARK  214  A    between atoms: _509  and  _511
REMARK  215  A    between atoms: _511  and  _512
REMARK  216  A    between atoms: _511  and  _514
REMARK  217  A    between atoms: _514  and  _515
REMARK  218  A    between atoms: _519  and  _520
REMARK  219  A    between atoms: _525  and  _527
REMARK  220  A    between atoms: _527  and  _528
REMARK  221  A    between atoms: _527  and  _530
REMARK  222  A    between atoms: _530  and  _531
REMARK  223  A    between atoms: _534  and  _536
REMARK  224  A    between atoms: _536  and  _537
REMARK  225  A    between atoms: _536  and  _539
REMARK  226  A    between atoms: _539  and  _540
REMARK  227  A    between atoms: _545  and  _547
REMARK  228  A    between atoms: _547  and  _548
REMARK  229  A    between atoms: _547  and  _550
REMARK  230  A    between atoms: _553  and  _555
REMARK  231  A    between atoms: _555  and  _556
REMARK  232  A    between atoms: _555  and  _558
REMARK  233  A    between atoms: _558  and  _559
REMARK  234  A    between atoms: _562  and  _564
REMARK  235  A    between atoms: _564  and  _565
REMARK  236  A    between atoms: _567  and  _569
REMARK  237  A    between atoms: _569  and  _570
REMARK  238  A    between atoms: _569  and  _572
REMARK  239  A    between atoms: _572  and  _573
REMARK  240  A    between atoms: _573  and  _574
REMARK  241  A    between atoms: _574  and  _575
REMARK                            x       y       z     vdW  Elec       q    Type
REMARK                         _______ _______ _______ _____ _____    ______ ____
ROOT
ATOM      1  CA  LEU A   1      15.883  13.314  -4.782  0.00  0.00    +0.133 C 
ENDROOT
BRANCH   1   2
ATOM      2  N   LEU A   1      16.697  14.247  -5.555  0.00  0.00    -0.239 NA
ATOM      3  H   LEU A   1      16.758  15.239  -5.248  0.00  0.00    +0.142 HD
ENDBRANCH   1   2
BRANCH   1   4
ATOM      4  C   LEU A   1      14.434  13.506  -5.212  0.00  0.00    +0.224 C 
ATOM      5  O   LEU A   1      13.993  14.633  -5.422  0.00  0.00    -0.287 OA
ENDBRANCH   1   4
BRANCH   1   6
ATOM      6  CB  LEU A   1      16.020  13.600  -3.284  0.00  0.00    +0.025 C 
BRANCH   6   7
ATOM      7  CG  LEU A   1      17.448  13.614  -2.728  0.00  0.00    +0.002 C 
ATOM      8  CD2 LEU A   1      17.425  13.779  -1.212  0.00  0.00    +0.000 C 
ATOM      9  CD1 LEU A   1      18.150  12.320  -3.105  0.00  0.00    +0.000 C 
ENDBRANCH   6   7
ENDBRANCH   1   6
TORSDOF 4
REMARK  Name = ../refined-set-2016/4a4q/4a4q_pocket.pdb
REMARK  241 active torsions:
REMARK  status: ('A' for Active; 'I' for Inactive)
REMARK    1  A    between atoms: _1  and  _3
REMARK    2  A    between atoms: _3  and  _4
REMARK    3  A    between atoms: _3  and  _6
REMARK    4  A    between atoms: _6  and  _7
REMARK    5  A    between atoms: _7  and  _8
REMARK    6  A    between atoms: _8  and  _9
REMARK    7  A    between atoms: _18  and  _20
REMARK    8  A    between atoms: _20  and  _21
REMARK    9  A    between atoms: _20  and  _23
REMARK   10  A    between atoms: _23  and  _24
REMARK   11  A    between atoms: _27  and  _29
REMARK   12  A    between atoms: _29  and  _30
REMARK   13  A    between atoms: _29  and  _32
REMARK   14  A    between atoms: _32  and  _33
REMARK   15  A    between atoms: _36  and  _38
REMARK   16  A    between atoms: _38  and  _39
REMARK   17  A    between atoms: _38  and  _41
REMARK   18  A    between atoms: _41  and  _42
REMARK   19  A    between atoms: _45  and  _47
REMARK   20  A    between atoms: _47  and  _48
REMARK   21  A    between atoms: _47  and  _50
REMARK   22  A    between atoms: _50  and  _51
REMARK   23  A    between atoms: _54  and  _56
REMARK   24  A    between atoms: _56  and  _57
REMARK   25  A    between atoms: _59  and  _61
REMARK   26  A    between atoms: _61  and  _62
REMARK   27  A    between atoms: _65  and  _67
REMARK   28  A    between atoms: _67  and  _68
REMARK   29  A    between atoms: _67  and  _70
REMARK   30  A    between atoms: _70  and  _71
REMARK   31  A    between atoms: _74  and  _76
REMARK   32  A    between atoms: _76  and  _77
REMARK   33  A    between atoms: _76  and  _79
REMARK   34  A    between atoms: _79  and  _80
REMARK   35  A    between atoms: _83  and  _85
REMARK   36  A    between atoms: _85  and  _86
REMARK   37  A    between atoms: _85  and  _88
REMARK   38  A    between atoms: _88  and  _89
REMARK   39  A    between atoms: _92  and  _94
REMARK   40  A    between atoms: _94  and  _95
REMARK   41  A    between atoms: _94  and  _97
REMARK   42  A    between atoms: _100  and  _102
REMARK   43  A    between atoms: _102  and  _103
REMARK   44  A    between atoms: _102  and  _105
REMARK   45  A    between atoms: _105  and  _106
REMARK   46  A    between atoms: _109  and  _111
REMARK   47  A    between atoms: _111  and  _112
REMARK   48  A    between atoms: _111  and  _114
REMARK   49  A    between atoms: _114  and  _115
REMARK   50  A    between atoms: _115  and  _116
REMARK   51  A    between atoms: _119  and  _121
REMARK   52  A    between atoms: _121  and  _122
REMARK   53  A    between atoms: _121  and  _124
REMARK   54  A    between atoms: _124  and  _125
REMARK   55  A    between atoms: _125  and  _126
REMARK   56  A    between atoms: _126  and  _127
REMARK   57  A    between atoms: _127  and  _128
REMARK   58  A    between atoms: _132  and  _134
REMARK   59  A    between atoms: _134  and  _135
REMARK   60  A    between atoms: _134  and  _137
REMARK   61  A    between atoms: _137  and  _138
REMARK   62  A    between atoms: _138  and  _139
REMARK   63  A    between atoms: _141  and  _143
REMARK   64  A    between atoms: _143  and  _144
REMARK   65  A    between atoms: _143  and  _146
REMARK   66  A    between atoms: _146  and  _147
REMARK   67  A    between atoms: _150  and  _152
REMARK   68  A    between atoms: _152  and  _153
REMARK   69  A    between atoms: _155  and  _157
REMARK   70  A    between atoms: _157  and  _158
REMARK   71  A    between atoms: _160  and  _162
REMARK   72  A    between atoms: _162  and  _163
REMARK   73  A    between atoms: _162  and  _165
REMARK   74  A    between atoms: _165  and  _166
REMARK   75  A    between atoms: _169  and  _171
REMARK   76  A    between atoms: _171  and  _172
REMARK   77  A    between atoms: _174  and  _176
REMARK   78  A    between atoms: _176  and  _177
REMARK   79  A    between atoms: _179  and  _181
REMARK   80  A    between atoms: _181  and  _182
REMARK   81  A    between atoms: _181  and  _184
REMARK   82  A    between atoms: _184  and  _185
REMARK   83  A    between atoms: _191  and  _193
REMARK   84  A    between atoms: _193  and  _194
REMARK   85  A    between atoms: _193  and  _196
REMARK   86  A    between atoms: _196  and  _197
REMARK   87  A    between atoms: _200  and  _202
REMARK   88  A    between atoms: _202  and  _203
REMARK   89  A    between atoms: _202  and  _205
REMARK   90  A    between atoms: _208  and  _210
REMARK   91  A    between atoms: _210  and  _211
REMARK   92  A    between atoms: _210  and  _213
REMARK   93  A    between atoms: _213  and  _214
REMARK   94  A    between atoms: _217  and  _219
REMARK   95  A    between atoms: _219  and  _220
REMARK   96  A    between atoms: _219  and  _222
REMARK   97  A    between atoms: _222  and  _223
REMARK   98  A    between atoms: _227  and  _228
REMARK   99  A    between atoms: _233  and  _235
REMARK  100  A    between atoms: _235  and  _236
REMARK  101  A    between atoms: _235  and  _238
REMARK  102  A    between atoms: _238  and  _239
REMARK  103  A    between atoms: _242  and  _244
REMARK  104  A    between atoms: _244  and  _245
REMARK  105  A    between atoms: _244  and  _247
REMARK  106  A    between atoms: _247  and  _248
REMARK  107  A    between atoms: _253  and  _255
REMARK  108  A    between atoms: _255  and  _256
REMARK  109  A    between atoms: _255  and  _258
REMARK  110  A    between atoms: _261  and  _263
REMARK  111  A    between atoms: _263  and  _264
REMARK  112  A    between atoms: _263  and  _266
REMARK  113  A    between atoms: _266  and  _267
REMARK  114  A    between atoms: _270  and  _272
REMARK  115  A    between atoms: _272  and  _273
REMARK  116  A    between atoms: _275  and  _277
REMARK  117  A    between atoms: _277  and  _278
REMARK  118  A    between atoms: _277  and  _280
REMARK  119  A    between atoms: _280  and  _281
REMARK  120  A    between atoms: _281  and  _282
REMARK  121  A    between atoms: _282  and  _283
REMARK  122  A    between atoms: _292  and  _294
REMARK  123  A    between atoms: _294  and  _295
REMARK  124  A    between atoms: _294  and  _297
REMARK  125  A    between atoms: _297  and  _298
REMARK  126  A    between atoms: _303  and  _305
REMARK  127  A    between atoms: _305  and  _306
REMARK  128  A    between atoms: _305  and  _308
REMARK  129  A    between atoms: _308  and  _309
REMARK  130  A    between atoms: _309  and  _310
REMARK  131  A    between atoms: _310  and  _311
REMARK  132  A    between atoms: _320  and  _322
REMARK  133  A    between atoms: _322  and  _323
REMARK  134  A    between atoms: _322  and  _325
REMARK  135  A    between atoms: _325  and  _326
REMARK  136  A    between atoms: _329  and  _331
REMARK  137  A    between atoms: _331  and  _332
REMARK  138  A    between atoms: _331  and  _334
REMARK  139  A    between atoms: _334  and  _335
REMARK  140  A    between atoms: _338  and  _340
REMARK  141  A    between atoms: _340  and  _341
REMARK  142  A    between atoms: _340  and  _343
REMARK  143  A    between atoms: _343  and  _344
REMARK  144  A    between atoms: _347  and  _349
REMARK  145  A    between atoms: _349  and  _350
REMARK  146  A    between atoms: _349  and  _352
REMARK  147  A    between atoms: _352  and  _353
REMARK  148  A    between atoms: _356  and  _358
REMARK  149  A    between atoms: _358  and  _359
REMARK  150  A    between atoms: _358  and  _361
REMARK  151  A    between atoms: _361  and  _362
REMARK  152  A    between atoms: _365  and  _367
REMARK  153  A    between atoms: _367  and  _368
REMARK  154  A    between atoms: _370  and  _372
REMARK  155  A    between atoms: _372  and  _373
REMARK  156  A    between atoms: _376  and  _378
REMARK  157  A    between atoms: _378  and  _379
REMARK  158  A    between atoms: _378  and  _381
REMARK  159  A    between atoms: _381  and  _382
REMARK  160  A    between atoms: _385  and  _387
REMARK  161  A    between atoms: _387  and  _388
REMARK  162  A    between atoms: _387  and  _390
REMARK  163  A    between atoms: _390  and  _391
REMARK  164  A    between atoms: _394  and  _396
REMARK  165  A    between atoms: _396  and  _397
REMARK  166  A    between atoms: _396  and  _399
REMARK  167  A    between atoms: _399  and  _400
REMARK  168  A    between atoms: _403  and  _405
REMARK  169  A    between atoms: _405  and  _406
REMARK  170  A    between atoms: _405  and  _408
REMARK  171  A    between atoms: _411  and  _413
REMARK  172  A    between atoms: _413  and  _414
REMARK  173  A    between atoms: _413  and  _416
REMARK  174  A    between atoms: _416  and  _417
REMARK  175  A    between atoms: _417  and  _418
REMARK  176  A    between atoms: _418  and  _419
REMARK  177  A    between atoms: _419  and  _420
REMARK  178  A    between atoms: _424  and  _426
REMARK  179  A    between atoms: _426  and  _427
REMARK  180  A    between atoms: _426  and  _429
REMARK  181  A    between atoms: _429  and  _430
REMARK  182  A    between atoms: _430  and  _431
REMARK  183  A    between atoms: _433  and  _435
REMARK  184  A    between atoms: _435  and  _436
REMARK  185  A    between atoms: _435  and  _438
REMARK  186  A    between atoms: _438  and  _439
REMARK  187  A    between atoms: _442  and  _444
REMARK  188  A    between atoms: _444  and  _445
REMARK  189  A    between atoms: _447  and  _449
REMARK  190  A    between atoms: _449  and  _450
REMARK  191  A    between atoms: _452  and  _454
REMARK  192  A    between atoms: _454  and  _455
REMARK  193  A    between atoms: _454  and  _457
REMARK  194  A    between atoms: _457  and  _458
REMARK  195  A    between atoms: _461  and  _463
REMARK  196  A    between atoms: _463  and  _464
REMARK  197  A    between atoms: _466  and  _468
REMARK  198  A    between atoms: _468  and  _469
REMARK  199  A    between atoms: _471  and  _473
REMARK  200  A    between atoms: _473  and  _474
REMARK  201  A    between atoms: _473  and  _476
REMARK  202  A    between atoms: _476  and  _477
REMARK  203  A    between atoms: _483  and  _485
REMARK  204  A    between atoms: _485  and  _486
REMARK  205  A    between atoms: _485  and  _488
REMARK  206  A    between atoms: _488  and  _489
REMARK  207  A    between atoms: _492  and  _494
REMARK  208  A    between atoms: _494  and  _495
REMARK  209  A    between atoms: _494  and  _497
REMARK  210  A    between atoms: _500  and  _502
REMARK  211  A    between atoms: _502  and  _503
REMARK  212  A    between atoms: _502  and  _505
REMARK  213  A    between atoms: _505  and  _506
REMARK  214  A    between atoms: _509  and  _511
REMARK  215  A    between atoms: _511  and  _512
REMARK  216  A    between atoms: _511  and  _514
REMARK  217  A    between atoms: _514  and  _515
REMARK  218  A    between atoms: _519  and  _520
REMARK  219  A    between atoms: _525  and  _527
REMARK  220  A    between atoms: _527  and  _528
REMARK  221  A    between atoms: _527  and  _530
REMARK  222  A    between atoms: _530  and  _531
REMARK  223  A    between atoms: _534  and  _536
REMARK  224  A    between atoms: _536  and  _537
REMARK  225  A    between atoms: _536  and  _539
REMARK  226  A    between atoms: _539  and  _540
REMARK  227  A    between atoms: _545  and  _547
REMARK  228  A    between atoms: _547  and  _548
REMARK  229  A    between atoms: _547  and  _550
REMARK  230  A    between atoms: _553  and  _555
REMARK  231  A    between atoms: _555  and  _556
REMARK  232  A    between atoms: _555  and  _558
REMARK  233  A    between atoms: _558  and  _559
REMARK  234  A    between atoms: _562  and  _564
REMARK  235  A    between atoms: _564  and  _565
REMARK  236  A    between atoms: _567  and  _569
REMARK  237  A    between atoms: _569  and  _570
REMARK  238  A    between atoms: _569  and  _572
REMARK  239  A    between atoms: _572  and  _573
REMARK  240  A    between atoms: _573  and  _574
REMARK  241  A    between atoms: _574  and  _575
REMARK                            x       y       z     vdW  Elec       q    Type
REMARK                         _______ _______ _______ _____ _____    ______ ____
ROOT
ATOM      1  C   ASN A   4      11.217  22.400  -4.345  0.00  0.00    +0.241 C 
ATOM      2  N   VAL A   5      12.331  21.868  -3.855  0.00  0.00    -0.297 N 
ATOM      3  H   VAL A   5      12.476  20.839  -3.897  0.00  0.00    +0.150 HD
ATOM      4  O   ASN A   4      10.981  23.607  -4.306  0.00  0.00    -0.273 OA
ENDROOT
BRANCH   2   5
ATOM      5  CA  VAL A   5      13.347  22.719  -3.260  0.00  0.00    +0.149 C 
BRANCH   5   6
ATOM      6  C   VAL A   5      14.725  22.439  -3.843  0.00  0.00    +0.241 C 
ATOM      7  O   VAL A   5      15.101  21.285  -4.050  0.00  0.00    -0.273 OA
ATOM      8  N   ILE A   6      15.464  23.505  -4.130  0.00  0.00    -0.297 N 
ATOM      9  H   ILE A   6      15.066  24.453  -3.975  0.00  0.00    +0.150 HD
BRANCH   8  10
ATOM     10  CA  ILE A   6      16.818  23.381  -4.656  0.00  0.00    +0.149 C 
BRANCH  10  11
ATOM     11  C   ILE A   6      17.745  23.558  -3.455  0.00  0.00    +0.241 C 
ATOM     12  O   ILE A   6      17.800  24.636  -2.869  0.00  0.00    -0.273 OA
ATOM     13  N   GLY A   7      18.457  22.496  -3.094  0.00  0.00    -0.295 N 
ATOM     14  H   GLY A   7      18.366  21.613  -3.637  0.00  0.00    +0.150 HD
BRANCH  13  15
ATOM     15  CA  GLY A   7      19.360  22.543  -1.956  0.00  0.00    +0.176 C 
BRANCH  15  16
ATOM     16  C   GLY A   7      20.781  22.982  -2.278  0.00  0.00    +0.243 C 
ATOM     17  N   ARG A   8      21.620  23.052  -1.248  0.00  0.00    -0.298 N 
ATOM     18  H   ARG A   8      21.281  22.791  -0.300  0.00  0.00    +0.150 HD
ATOM     19  O   GLY A   7      21.119  23.240  -3.435  0.00  0.00    -0.273 OA
BRANCH  17  20
ATOM     20  CA  ARG A   8      23.002  23.485  -1.413  0.00  0.00    +0.137 C 
BRANCH  20  21
ATOM     21  C   ARG A   8      23.825  22.678  -2.407  0.00  0.00    +0.227 C 
ATOM     22  O   ARG A   8      24.741  23.220  -3.029  0.00  0.00    -0.286 OA
ENDBRANCH  20  21
BRANCH  20  23
ATOM     23  CB  ARG A   8      23.715  23.517  -0.053  0.00  0.00    +0.031 C 
BRANCH  23  24
ATOM     24  CG  ARG A   8      23.184  24.591   0.889  0.00  0.00    +0.045 C 
BRANCH  24  25
ATOM     25  CD  ARG A   8      23.997  24.684   2.186  0.00  0.00    +0.174 C 
BRANCH  25  26
ATOM     26  NE  ARG A   8      24.006  23.426   2.930  0.00  0.00    -0.265 N 
ATOM     27  HE  ARG A   8      23.164  23.192   3.494  0.00  0.00    +0.259 HD
ATOM     28  CZ  ARG A   8      25.015  22.558   2.938  0.00  0.00    +0.342 C 
ATOM     29  NH2 ARG A   8      24.906  21.428   3.624  0.00  0.00    -0.292 N 
ATOM     30 HH21 ARG A   8      24.034  21.223   4.153  0.00  0.00    +0.255 HD
ATOM     31 HH22 ARG A   8      25.692  20.747   3.633  0.00  0.00    +0.255 HD
ATOM     32  NH1 ARG A   8      26.124  22.801   2.248  0.00  0.00    -0.292 N 
ATOM     33 HH11 ARG A   8      26.906  22.115   2.262  0.00  0.00    +0.255 HD
ATOM     34 HH12 ARG A   8      26.210  23.677   1.694  0.00  0.00    +0.255 HD
ENDBRANCH  25  26
ENDBRANCH  24  25
ENDBRANCH  23  24
ENDBRANCH  20  23
ENDBRANCH  17  20
ENDBRANCH  15  16
ENDBRANCH  13  15
ENDBRANCH  10  11
BRANCH  10  35
ATOM     35  CB  ILE A   6      17.119  24.481  -5.689  0.00  0.00    +0.027 C 
ATOM     36  CG2 ILE A   6      18.519  24.282  -6.279  0.00  0.00    +0.002 C 
BRANCH  35  37
ATOM     37  CG1 ILE A   6      16.057  24.454  -6.789  0.00  0.00    +0.002 C 
ATOM     38  CD1 ILE A   6      16.213  25.555  -7.809  0.00  0.00    +0.000 C 
ENDBRANCH  35  37
ENDBRANCH  10  35
ENDBRANCH   8  10
ENDBRANCH   5   6
BRANCH   5  39
ATOM     39  CB  VAL A   5      13.415  22.542  -1.725  0.00  0.00    +0.027 C 
ATOM     40  CG2 VAL A   5      12.057  22.824  -1.108  0.00  0.00    +0.002 C 
ATOM     41  CG1 VAL A   5      13.877  21.144  -1.378  0.00  0.00    +0.002 C 
ENDBRANCH   5  39
ENDBRANCH   2   5
BRANCH   1  42
ATOM     42  CA  ASN A   4      10.215  21.443  -4.970  0.00  0.00    +0.158 C 
BRANCH  42  45
ATOM     43  C   THR A   3       8.670  21.329  -3.099  0.00  0.00    +0.243 C 
ATOM     44  O   THR A   3       9.505  20.771  -2.390  0.00  0.00    -0.273 OA
ATOM     45  N   ASN A   4       8.912  21.682  -4.359  0.00  0.00    -0.297 N 
ATOM     46  H   ASN A   4       8.160  22.135  -4.917  0.00  0.00    +0.150 HD
BRANCH  43  47
ATOM     47  CA  THR A   3       7.283  21.652  -2.552  0.00  0.00    +0.176 C 
BRANCH  47  49
ATOM     48  C   PRO A   2       5.699  20.565  -1.035  0.00  0.00    +0.241 C 
ATOM     49  N   THR A   3       6.955  20.762  -1.435  0.00  0.00    -0.295 N 
ATOM     50  H   THR A   3       7.725  20.269  -0.940  0.00  0.00    +0.150 HD
ATOM     51  O   PRO A   2       4.741  21.121  -1.565  0.00  0.00    -0.273 OA
BRANCH  48  57
ATOM     52  C   THR A   1       6.764  17.723  -0.764  0.00  0.00    +0.244 C 
ATOM     53  N   PRO A   2       6.547  18.586   0.241  0.00  0.00    -0.272 N 
ATOM     54  CD  PRO A   2       7.125  18.592   1.593  0.00  0.00    +0.094 C 
ATOM     55  CG  PRO A   2       6.849  19.992   2.032  0.00  0.00    +0.024 C 
ATOM     56  CB  PRO A   2       5.480  20.261   1.500  0.00  0.00    +0.031 C 
ATOM     57  CA  PRO A   2       5.482  19.586   0.123  0.00  0.00    +0.152 C 
ATOM     58  O   THR A   1       6.078  17.730  -1.784  0.00  0.00    -0.273 OA
BRANCH  52  59
ATOM     59  CA  THR A   1       7.889  16.710  -0.594  0.00  0.00    +0.172 C 
BRANCH  59  60
ATOM     60  N   THR A   1       7.497  15.468  -1.242  0.00  0.00    -0.236 NA
ATOM     61  H   THR A   1       7.709  15.326  -2.250  0.00  0.00    +0.142 HD
ENDBRANCH  59  60
BRANCH  59  62
ATOM     62  CB  THR A   1       9.170  17.297  -1.229  0.00  0.00    +0.135 C 
ATOM     63  CG2 THR A   1       9.001  17.455  -2.733  0.00  0.00    +0.034 C 
BRANCH  62  64
ATOM     64  OG1 THR A   1       9.442  18.577  -0.651  0.00  0.00    -0.383 OA
ATOM     65  HG1 THR A   1      10.262  18.954  -1.057  0.00  0.00    +0.210 HD
ENDBRANCH  62  64
ENDBRANCH  59  62
ENDBRANCH  52  59
ENDBRANCH  48  57
ENDBRANCH  47  49
BRANCH  47  66
ATOM     66  CB  THR A   3       7.302  23.149  -2.146  0.00  0.00    +0.137 C 
ATOM     67  CG2 THR A   3       5.970  23.581  -1.564  0.00  0.00    +0.034 C 
BRANCH  66  68
ATOM     68  OG1 THR A   3       8.337  23.367  -1.178  0.00  0.00    -0.382 OA
ATOM     69  HG1 THR A   3       9.212  23.119  -1.570  0.00  0.00    +0.210 HD
ENDBRANCH  66  68
ENDBRANCH  47  66
ENDBRANCH  43  47
ENDBRANCH  42  45
BRANCH  42  70
ATOM     70  CB  ASN A   4      10.186  21.707  -6.478  0.00  0.00    +0.114 C 
BRANCH  70  71
ATOM     71  CG  ASN A   4       9.277  20.762  -7.222  0.00  0.00    +0.222 C 
ATOM     72  OD1 ASN A   4       9.179  19.587  -6.882  0.00  0.00    -0.275 OA
ATOM     73  ND2 ASN A   4       8.623  21.266  -8.266  0.00  0.00    -0.329 N 
ATOM     74 HD21 ASN A   4       8.737  22.269  -8.516  0.00  0.00    +0.145 HD
ATOM     75 HD22 ASN A   4       7.998  20.657  -8.831  0.00  0.00    +0.145 HD
ENDBRANCH  70  71
ENDBRANCH  42  70
ENDBRANCH   1  42
TORSDOF 28
REMARK  Name = ../refined-set-2016/4a4q/4a4q_pocket.pdb
REMARK  241 active torsions:
REMARK  status: ('A' for Active; 'I' for Inactive)
REMARK    1  A    between atoms: _1  and  _3
REMARK    2  A    between atoms: _3  and  _4
REMARK    3  A    between atoms: _3  and  _6
REMARK    4  A    between atoms: _6  and  _7
REMARK    5  A    between atoms: _7  and  _8
REMARK    6  A    between atoms: _8  and  _9
REMARK    7  A    between atoms: _18  and  _20
REMARK    8  A    between atoms: _20  and  _21
REMARK    9  A    between atoms: _20  and  _23
REMARK   10  A    between atoms: _23  and  _24
REMARK   11  A    between atoms: _27  and  _29
REMARK   12  A    between atoms: _29  and  _30
REMARK   13  A    between atoms: _29  and  _32
REMARK   14  A    between atoms: _32  and  _33
REMARK   15  A    between atoms: _36  and  _38
REMARK   16  A    between atoms: _38  and  _39
REMARK   17  A    between atoms: _38  and  _41
REMARK   18  A    between atoms: _41  and  _42
REMARK   19  A    between atoms: _45  and  _47
REMARK   20  A    between atoms: _47  and  _48
REMARK   21  A    between atoms: _47  and  _50
REMARK   22  A    between atoms: _50  and  _51
REMARK   23  A    between atoms: _54  and  _56
REMARK   24  A    between atoms: _56  and  _57
REMARK   25  A    between atoms: _59  and  _61
REMARK   26  A    between atoms: _61  and  _62
REMARK   27  A    between atoms: _65  and  _67
REMARK   28  A    between atoms: _67  and  _68
REMARK   29  A    between atoms: _67  and  _70
REMARK   30  A    between atoms: _70  and  _71
REMARK   31  A    between atoms: _74  and  _76
REMARK   32  A    between atoms: _76  and  _77
REMARK   33  A    between atoms: _76  and  _79
REMARK   34  A    between atoms: _79  and  _80
REMARK   35  A    between atoms: _83  and  _85
REMARK   36  A    between atoms: _85  and  _86
REMARK   37  A    between atoms: _85  and  _88
REMARK   38  A    between atoms: _88  and  _89
REMARK   39  A    between atoms: _92  and  _94
REMARK   40  A    between atoms: _94  and  _95
REMARK   41  A    between atoms: _94  and  _97
REMARK   42  A    between atoms: _100  and  _102
REMARK   43  A    between atoms: _102  and  _103
REMARK   44  A    between atoms: _102  and  _105
REMARK   45  A    between atoms: _105  and  _106
REMARK   46  A    between atoms: _109  and  _111
REMARK   47  A    between atoms: _111  and  _112
REMARK   48  A    between atoms: _111  and  _114
REMARK   49  A    between atoms: _114  and  _115
REMARK   50  A    between atoms: _115  and  _116
REMARK   51  A    between atoms: _119  and  _121
REMARK   52  A    between atoms: _121  and  _122
REMARK   53  A    between atoms: _121  and  _124
REMARK   54  A    between atoms: _124  and  _125
REMARK   55  A    between atoms: _125  and  _126
REMARK   56  A    between atoms: _126  and  _127
REMARK   57  A    between atoms: _127  and  _128
REMARK   58  A    between atoms: _132  and  _134
REMARK   59  A    between atoms: _134  and  _135
REMARK   60  A    between atoms: _134  and  _137
REMARK   61  A    between atoms: _137  and  _138
REMARK   62  A    between atoms: _138  and  _139
REMARK   63  A    between atoms: _141  and  _143
REMARK   64  A    between atoms: _143  and  _144
REMARK   65  A    between atoms: _143  and  _146
REMARK   66  A    between atoms: _146  and  _147
REMARK   67  A    between atoms: _150  and  _152
REMARK   68  A    between atoms: _152  and  _153
REMARK   69  A    between atoms: _155  and  _157
REMARK   70  A    between atoms: _157  and  _158
REMARK   71  A    between atoms: _160  and  _162
REMARK   72  A    between atoms: _162  and  _163
REMARK   73  A    between atoms: _162  and  _165
REMARK   74  A    between atoms: _165  and  _166
REMARK   75  A    between atoms: _169  and  _171
REMARK   76  A    between atoms: _171  and  _172
REMARK   77  A    between atoms: _174  and  _176
REMARK   78  A    between atoms: _176  and  _177
REMARK   79  A    between atoms: _179  and  _181
REMARK   80  A    between atoms: _181  and  _182
REMARK   81  A    between atoms: _181  and  _184
REMARK   82  A    between atoms: _184  and  _185
REMARK   83  A    between atoms: _191  and  _193
REMARK   84  A    between atoms: _193  and  _194
REMARK   85  A    between atoms: _193  and  _196
REMARK   86  A    between atoms: _196  and  _197
REMARK   87  A    between atoms: _200  and  _202
REMARK   88  A    between atoms: _202  and  _203
REMARK   89  A    between atoms: _202  and  _205
REMARK   90  A    between atoms: _208  and  _210
REMARK   91  A    between atoms: _210  and  _211
REMARK   92  A    between atoms: _210  and  _213
REMARK   93  A    between atoms: _213  and  _214
REMARK   94  A    between atoms: _217  and  _219
REMARK   95  A    between atoms: _219  and  _220
REMARK   96  A    between atoms: _219  and  _222
REMARK   97  A    between atoms: _222  and  _223
REMARK   98  A    between atoms: _227  and  _228
REMARK   99  A    between atoms: _233  and  _235
REMARK  100  A    between atoms: _235  and  _236
REMARK  101  A    between atoms: _235  and  _238
REMARK  102  A    between atoms: _238  and  _239
REMARK  103  A    between atoms: _242  and  _244
REMARK  104  A    between atoms: _244  and  _245
REMARK  105  A    between atoms: _244  and  _247
REMARK  106  A    between atoms: _247  and  _248
REMARK  107  A    between atoms: _253  and  _255
REMARK  108  A    between atoms: _255  and  _256
REMARK  109  A    between atoms: _255  and  _258
REMARK  110  A    between atoms: _261  and  _263
REMARK  111  A    between atoms: _263  and  _264
REMARK  112  A    between atoms: _263  and  _266
REMARK  113  A    between atoms: _266  and  _267
REMARK  114  A    between atoms: _270  and  _272
REMARK  115  A    between atoms: _272  and  _273
REMARK  116  A    between atoms: _275  and  _277
REMARK  117  A    between atoms: _277  and  _278
REMARK  118  A    between atoms: _277  and  _280
REMARK  119  A    between atoms: _280  and  _281
REMARK  120  A    between atoms: _281  and  _282
REMARK  121  A    between atoms: _282  and  _283
REMARK  122  A    between atoms: _292  and  _294
REMARK  123  A    between atoms: _294  and  _295
REMARK  124  A    between atoms: _294  and  _297
REMARK  125  A    between atoms: _297  and  _298
REMARK  126  A    between atoms: _303  and  _305
REMARK  127  A    between atoms: _305  and  _306
REMARK  128  A    between atoms: _305  and  _308
REMARK  129  A    between atoms: _308  and  _309
REMARK  130  A    between atoms: _309  and  _310
REMARK  131  A    between atoms: _310  and  _311
REMARK  132  A    between atoms: _320  and  _322
REMARK  133  A    between atoms: _322  and  _323
REMARK  134  A    between atoms: _322  and  _325
REMARK  135  A    between atoms: _325  and  _326
REMARK  136  A    between atoms: _329  and  _331
REMARK  137  A    between atoms: _331  and  _332
REMARK  138  A    between atoms: _331  and  _334
REMARK  139  A    between atoms: _334  and  _335
REMARK  140  A    between atoms: _338  and  _340
REMARK  141  A    between atoms: _340  and  _341
REMARK  142  A    between atoms: _340  and  _343
REMARK  143  A    between atoms: _343  and  _344
REMARK  144  A    between atoms: _347  and  _349
REMARK  145  A    between atoms: _349  and  _350
REMARK  146  A    between atoms: _349  and  _352
REMARK  147  A    between atoms: _352  and  _353
REMARK  148  A    between atoms: _356  and  _358
REMARK  149  A    between atoms: _358  and  _359
REMARK  150  A    between atoms: _358  and  _361
REMARK  151  A    between atoms: _361  and  _362
REMARK  152  A    between atoms: _365  and  _367
REMARK  153  A    between atoms: _367  and  _368
REMARK  154  A    between atoms: _370  and  _372
REMARK  155  A    between atoms: _372  and  _373
REMARK  156  A    between atoms: _376  and  _378
REMARK  157  A    between atoms: _378  and  _379
REMARK  158  A    between atoms: _378  and  _381
REMARK  159  A    between atoms: _381  and  _382
REMARK  160  A    between atoms: _385  and  _387
REMARK  161  A    between atoms: _387  and  _388
REMARK  162  A    between atoms: _387  and  _390
REMARK  163  A    between atoms: _390  and  _391
REMARK  164  A    between atoms: _394  and  _396
REMARK  165  A    between atoms: _396  and  _397
REMARK  166  A    between atoms: _396  and  _399
REMARK  167  A    between atoms: _399  and  _400
REMARK  168  A    between atoms: _403  and  _405
REMARK  169  A    between atoms: _405  and  _406
REMARK  170  A    between atoms: _405  and  _408
REMARK  171  A    between atoms: _411  and  _413
REMARK  172  A    between atoms: _413  and  _414
REMARK  173  A    between atoms: _413  and  _416
REMARK  174  A    between atoms: _416  and  _417
REMARK  175  A    between atoms: _417  and  _418
REMARK  176  A    between atoms: _418  and  _419
REMARK  177  A    between atoms: _419  and  _420
REMARK  178  A    between atoms: _424  and  _426
REMARK  179  A    between atoms: _426  and  _427
REMARK  180  A    between atoms: _426  and  _429
REMARK  181  A    between atoms: _429  and  _430
REMARK  182  A    between atoms: _430  and  _431
REMARK  183  A    between atoms: _433  and  _435
REMARK  184  A    between atoms: _435  and  _436
REMARK  185  A    between atoms: _435  and  _438
REMARK  186  A    between atoms: _438  and  _439
REMARK  187  A    between atoms: _442  and  _444
REMARK  188  A    between atoms: _444  and  _445
REMARK  189  A    between atoms: _447  and  _449
REMARK  190  A    between atoms: _449  and  _450
REMARK  191  A    between atoms: _452  and  _454
REMARK  192  A    between atoms: _454  and  _455
REMARK  193  A    between atoms: _454  and  _457
REMARK  194  A    between atoms: _457  and  _458
REMARK  195  A    between atoms: _461  and  _463
REMARK  196  A    between atoms: _463  and  _464
REMARK  197  A    between atoms: _466  and  _468
REMARK  198  A    between atoms: _468  and  _469
REMARK  199  A    between atoms: _471  and  _473
REMARK  200  A    between atoms: _473  and  _474
REMARK  201  A    between atoms: _473  and  _476
REMARK  202  A    between atoms: _476  and  _477
REMARK  203  A    between atoms: _483  and  _485
REMARK  204  A    between atoms: _485  and  _486
REMARK  205  A    between atoms: _485  and  _488
REMARK  206  A    between atoms: _488  and  _489
REMARK  207  A    between atoms: _492  and  _494
REMARK  208  A    between atoms: _494  and  _495
REMARK  209  A    between atoms: _494  and  _497
REMARK  210  A    between atoms: _500  and  _502
REMARK  211  A    between atoms: _502  and  _503
REMARK  212  A    between atoms: _502  and  _505
REMARK  213  A    between atoms: _505  and  _506
REMARK  214  A    between atoms: _509  and  _511
REMARK  215  A    between atoms: _511  and  _512
REMARK  216  A    between atoms: _511  and  _514
REMARK  217  A    between atoms: _514  and  _515
REMARK  218  A    between atoms: _519  and  _520
REMARK  219  A    between atoms: _525  and  _527
REMARK  220  A    between atoms: _527  and  _528
REMARK  221  A    between atoms: _527  and  _530
REMARK  222  A    between atoms: _530  and  _531
REMARK  223  A    between atoms: _534  and  _536
REMARK  224  A    between atoms: _536  and  _537
REMARK  225  A    between atoms: _536  and  _539
REMARK  226  A    between atoms: _539  and  _540
REMARK  227  A    between atoms: _545  and  _547
REMARK  228  A    between atoms: _547  and  _548
REMARK  229  A    between atoms: _547  and  _550
REMARK  230  A    between atoms: _553  and  _555
REMARK  231  A    between atoms: _555  and  _556
REMARK  232  A    between atoms: _555  and  _558
REMARK  233  A    between atoms: _558  and  _559
REMARK  234  A    between atoms: _562  and  _564
REMARK  235  A    between atoms: _564  and  _565
REMARK  236  A    between atoms: _567  and  _569
REMARK  237  A    between atoms: _569  and  _570
REMARK  238  A    between atoms: _569  and  _572
REMARK  239  A    between atoms: _572  and  _573
REMARK  240  A    between atoms: _573  and  _574
REMARK  241  A    between atoms: _574  and  _575
REMARK                            x       y       z     vdW  Elec       q    Type
REMARK                         _______ _______ _______ _____ _____    ______ ____
ROOT
ATOM      1  O   HOH     1      20.658  21.177   8.815  0.00  0.00    +0.000 OA
ENDROOT
TORSDOF 0
REMARK  Name = ../refined-set-2016/4a4q/4a4q_pocket.pdb
REMARK  241 active torsions:
REMARK  status: ('A' for Active; 'I' for Inactive)
REMARK    1  A    between atoms: _1  and  _3
REMARK    2  A    between atoms: _3  and  _4
REMARK    3  A    between atoms: _3  and  _6
REMARK    4  A    between atoms: _6  and  _7
REMARK    5  A    between atoms: _7  and  _8
REMARK    6  A    between atoms: _8  and  _9
REMARK    7  A    between atoms: _18  and  _20
REMARK    8  A    between atoms: _20  and  _21
REMARK    9  A    between atoms: _20  and  _23
REMARK   10  A    between atoms: _23  and  _24
REMARK   11  A    between atoms: _27  and  _29
REMARK   12  A    between atoms: _29  and  _30
REMARK   13  A    between atoms: _29  and  _32
REMARK   14  A    between atoms: _32  and  _33
REMARK   15  A    between atoms: _36  and  _38
REMARK   16  A    between atoms: _38  and  _39
REMARK   17  A    between atoms: _38  and  _41
REMARK   18  A    between atoms: _41  and  _42
REMARK   19  A    between atoms: _45  and  _47
REMARK   20  A    between atoms: _47  and  _48
REMARK   21  A    between atoms: _47  and  _50
REMARK   22  A    between atoms: _50  and  _51
REMARK   23  A    between atoms: _54  and  _56
REMARK   24  A    between atoms: _56  and  _57
REMARK   25  A    between atoms: _59  and  _61
REMARK   26  A    between atoms: _61  and  _62
REMARK   27  A    between atoms: _65  and  _67
REMARK   28  A    between atoms: _67  and  _68
REMARK   29  A    between atoms: _67  and  _70
REMARK   30  A    between atoms: _70  and  _71
REMARK   31  A    between atoms: _74  and  _76
REMARK   32  A    between atoms: _76  and  _77
REMARK   33  A    between atoms: _76  and  _79
REMARK   34  A    between atoms: _79  and  _80
REMARK   35  A    between atoms: _83  and  _85
REMARK   36  A    between atoms: _85  and  _86
REMARK   37  A    between atoms: _85  and  _88
REMARK   38  A    between atoms: _88  and  _89
REMARK   39  A    between atoms: _92  and  _94
REMARK   40  A    between atoms: _94  and  _95
REMARK   41  A    between atoms: _94  and  _97
REMARK   42  A    between atoms: _100  and  _102
REMARK   43  A    between atoms: _102  and  _103
REMARK   44  A    between atoms: _102  and  _105
REMARK   45  A    between atoms: _105  and  _106
REMARK   46  A    between atoms: _109  and  _111
REMARK   47  A    between atoms: _111  and  _112
REMARK   48  A    between atoms: _111  and  _114
REMARK   49  A    between atoms: _114  and  _115
REMARK   50  A    between atoms: _115  and  _116
REMARK   51  A    between atoms: _119  and  _121
REMARK   52  A    between atoms: _121  and  _122
REMARK   53  A    between atoms: _121  and  _124
REMARK   54  A    between atoms: _124  and  _125
REMARK   55  A    between atoms: _125  and  _126
REMARK   56  A    between atoms: _126  and  _127
REMARK   57  A    between atoms: _127  and  _128
REMARK   58  A    between atoms: _132  and  _134
REMARK   59  A    between atoms: _134  and  _135
REMARK   60  A    between atoms: _134  and  _137
REMARK   61  A    between atoms: _137  and  _138
REMARK   62  A    between atoms: _138  and  _139
REMARK   63  A    between atoms: _141  and  _143
REMARK   64  A    between atoms: _143  and  _144
REMARK   65  A    between atoms: _143  and  _146
REMARK   66  A    between atoms: _146  and  _147
REMARK   67  A    between atoms: _150  and  _152
REMARK   68  A    between atoms: _152  and  _153
REMARK   69  A    between atoms: _155  and  _157
REMARK   70  A    between atoms: _157  and  _158
REMARK   71  A    between atoms: _160  and  _162
REMARK   72  A    between atoms: _162  and  _163
REMARK   73  A    between atoms: _162  and  _165
REMARK   74  A    between atoms: _165  and  _166
REMARK   75  A    between atoms: _169  and  _171
REMARK   76  A    between atoms: _171  and  _172
REMARK   77  A    between atoms: _174  and  _176
REMARK   78  A    between atoms: _176  and  _177
REMARK   79  A    between atoms: _179  and  _181
REMARK   80  A    between atoms: _181  and  _182
REMARK   81  A    between atoms: _181  and  _184
REMARK   82  A    between atoms: _184  and  _185
REMARK   83  A    between atoms: _191  and  _193
REMARK   84  A    between atoms: _193  and  _194
REMARK   85  A    between atoms: _193  and  _196
REMARK   86  A    between atoms: _196  and  _197
REMARK   87  A    between atoms: _200  and  _202
REMARK   88  A    between atoms: _202  and  _203
REMARK   89  A    between atoms: _202  and  _205
REMARK   90  A    between atoms: _208  and  _210
REMARK   91  A    between atoms: _210  and  _211
REMARK   92  A    between atoms: _210  and  _213
REMARK   93  A    between atoms: _213  and  _214
REMARK   94  A    between atoms: _217  and  _219
REMARK   95  A    between atoms: _219  and  _220
REMARK   96  A    between atoms: _219  and  _222
REMARK   97  A    between atoms: _222  and  _223
REMARK   98  A    between atoms: _227  and  _228
REMARK   99  A    between atoms: _233  and  _235
REMARK  100  A    between atoms: _235  and  _236
REMARK  101  A    between atoms: _235  and  _238
REMARK  102  A    between atoms: _238  and  _239
REMARK  103  A    between atoms: _242  and  _244
REMARK  104  A    between atoms: _244  and  _245
REMARK  105  A    between atoms: _244  and  _247
REMARK  106  A    between atoms: _247  and  _248
REMARK  107  A    between atoms: _253  and  _255
REMARK  108  A    between atoms: _255  and  _256
REMARK  109  A    between atoms: _255  and  _258
REMARK  110  A    between atoms: _261  and  _263
REMARK  111  A    between atoms: _263  and  _264
REMARK  112  A    between atoms: _263  and  _266
REMARK  113  A    between atoms: _266  and  _267
REMARK  114  A    between atoms: _270  and  _272
REMARK  115  A    between atoms: _272  and  _273
REMARK  116  A    between atoms: _275  and  _277
REMARK  117  A    between atoms: _277  and  _278
REMARK  118  A    between atoms: _277  and  _280
REMARK  119  A    between atoms: _280  and  _281
REMARK  120  A    between atoms: _281  and  _282
REMARK  121  A    between atoms: _282  and  _283
REMARK  122  A    between atoms: _292  and  _294
REMARK  123  A    between atoms: _294  and  _295
REMARK  124  A    between atoms: _294  and  _297
REMARK  125  A    between atoms: _297  and  _298
REMARK  126  A    between atoms: _303  and  _305
REMARK  127  A    between atoms: _305  and  _306
REMARK  128  A    between atoms: _305  and  _308
REMARK  129  A    between atoms: _308  and  _309
REMARK  130  A    between atoms: _309  and  _310
REMARK  131  A    between atoms: _310  and  _311
REMARK  132  A    between atoms: _320  and  _322
REMARK  133  A    between atoms: _322  and  _323
REMARK  134  A    between atoms: _322  and  _325
REMARK  135  A    between atoms: _325  and  _326
REMARK  136  A    between atoms: _329  and  _331
REMARK  137  A    between atoms: _331  and  _332
REMARK  138  A    between atoms: _331  and  _334
REMARK  139  A    between atoms: _334  and  _335
REMARK  140  A    between atoms: _338  and  _340
REMARK  141  A    between atoms: _340  and  _341
REMARK  142  A    between atoms: _340  and  _343
REMARK  143  A    between atoms: _343  and  _344
REMARK  144  A    between atoms: _347  and  _349
REMARK  145  A    between atoms: _349  and  _350
REMARK  146  A    between atoms: _349  and  _352
REMARK  147  A    between atoms: _352  and  _353
REMARK  148  A    between atoms: _356  and  _358
REMARK  149  A    between atoms: _358  and  _359
REMARK  150  A    between atoms: _358  and  _361
REMARK  151  A    between atoms: _361  and  _362
REMARK  152  A    between atoms: _365  and  _367
REMARK  153  A    between atoms: _367  and  _368
REMARK  154  A    between atoms: _370  and  _372
REMARK  155  A    between atoms: _372  and  _373
REMARK  156  A    between atoms: _376  and  _378
REMARK  157  A    between atoms: _378  and  _379
REMARK  158  A    between atoms: _378  and  _381
REMARK  159  A    between atoms: _381  and  _382
REMARK  160  A    between atoms: _385  and  _387
REMARK  161  A    between atoms: _387  and  _388
REMARK  162  A    between atoms: _387  and  _390
REMARK  163  A    between atoms: _390  and  _391
REMARK  164  A    between atoms: _394  and  _396
REMARK  165  A    between atoms: _396  and  _397
REMARK  166  A    between atoms: _396  and  _399
REMARK  167  A    between atoms: _399  and  _400
REMARK  168  A    between atoms: _403  and  _405
REMARK  169  A    between atoms: _405  and  _406
REMARK  170  A    between atoms: _405  and  _408
REMARK  171  A    between atoms: _411  and  _413
REMARK  172  A    between atoms: _413  and  _414
REMARK  173  A    between atoms: _413  and  _416
REMARK  174  A    between atoms: _416  and  _417
REMARK  175  A    between atoms: _417  and  _418
REMARK  176  A    between atoms: _418  and  _419
REMARK  177  A    between atoms: _419  and  _420
REMARK  178  A    between atoms: _424  and  _426
REMARK  179  A    between atoms: _426  and  _427
REMARK  180  A    between atoms: _426  and  _429
REMARK  181  A    between atoms: _429  and  _430
REMARK  182  A    between atoms: _430  and  _431
REMARK  183  A    between atoms: _433  and  _435
REMARK  184  A    between atoms: _435  and  _436
REMARK  185  A    between atoms: _435  and  _438
REMARK  186  A    between atoms: _438  and  _439
REMARK  187  A    between atoms: _442  and  _444
REMARK  188  A    between atoms: _444  and  _445
REMARK  189  A    between atoms: _447  and  _449
REMARK  190  A    between atoms: _449  and  _450
REMARK  191  A    between atoms: _452  and  _454
REMARK  192  A    between atoms: _454  and  _455
REMARK  193  A    between atoms: _454  and  _457
REMARK  194  A    between atoms: _457  and  _458
REMARK  195  A    between atoms: _461  and  _463
REMARK  196  A    between atoms: _463  and  _464
REMARK  197  A    between atoms: _466  and  _468
REMARK  198  A    between atoms: _468  and  _469
REMARK  199  A    between atoms: _471  and  _473
REMARK  200  A    between atoms: _473  and  _474
REMARK  201  A    between atoms: _473  and  _476
REMARK  202  A    between atoms: _476  and  _477
REMARK  203  A    between atoms: _483  and  _485
REMARK  204  A    between atoms: _485  and  _486
REMARK  205  A    between atoms: _485  and  _488
REMARK  206  A    between atoms: _488  and  _489
REMARK  207  A    between atoms: _492  and  _494
REMARK  208  A    between atoms: _494  and  _495
REMARK  209  A    between atoms: _494  and  _497
REMARK  210  A    between atoms: _500  and  _502
REMARK  211  A    between atoms: _502  and  _503
REMARK  212  A    between atoms: _502  and  _505
REMARK  213  A    between atoms: _505  and  _506
REMARK  214  A    between atoms: _509  and  _511
REMARK  215  A    between atoms: _511  and  _512
REMARK  216  A    between atoms: _511  and  _514
REMARK  217  A    between atoms: _514  and  _515
REMARK  218  A    between atoms: _519  and  _520
REMARK  219  A    between atoms: _525  and  _527
REMARK  220  A    between atoms: _527  and  _528
REMARK  221  A    between atoms: _527  and  _530
REMARK  222  A    between atoms: _530  and  _531
REMARK  223  A    between atoms: _534  and  _536
REMARK  224  A    between atoms: _536  and  _537
REMARK  225  A    between atoms: _536  and  _539
REMARK  226  A    between atoms: _539  and  _540
REMARK  227  A    between atoms: _545  and  _547
REMARK  228  A    between atoms: _547  and  _548
REMARK  229  A    between atoms: _547  and  _550
REMARK  230  A    between atoms: _553  and  _555
REMARK  231  A    between atoms: _555  and  _556
REMARK  232  A    between atoms: _555  and  _558
REMARK  233  A    between atoms: _558  and  _559
REMARK  234  A    between atoms: _562  and  _564
REMARK  235  A    between atoms: _564  and  _565
REMARK  236  A    between atoms: _567  and  _569
REMARK  237  A    between atoms: _569  and  _570
REMARK  238  A    between atoms: _569  and  _572
REMARK  239  A    between atoms: _572  and  _573
REMARK  240  A    between atoms: _573  and  _574
REMARK  241  A    between atoms: _574  and  _575
REMARK                            x       y       z     vdW  Elec       q    Type
REMARK                         _______ _______ _______ _____ _____    ______ ____
ROOT
ATOM      1  O   HOH     1      25.682  21.157  11.524  0.00  0.00    +0.000 OA
ENDROOT
TORSDOF 0
REMARK  Name = ../refined-set-2016/4a4q/4a4q_pocket.pdb
REMARK  241 active torsions:
REMARK  status: ('A' for Active; 'I' for Inactive)
REMARK    1  A    between atoms: _1  and  _3
REMARK    2  A    between atoms: _3  and  _4
REMARK    3  A    between atoms: _3  and  _6
REMARK    4  A    between atoms: _6  and  _7
REMARK    5  A    between atoms: _7  and  _8
REMARK    6  A    between atoms: _8  and  _9
REMARK    7  A    between atoms: _18  and  _20
REMARK    8  A    between atoms: _20  and  _21
REMARK    9  A    between atoms: _20  and  _23
REMARK   10  A    between atoms: _23  and  _24
REMARK   11  A    between atoms: _27  and  _29
REMARK   12  A    between atoms: _29  and  _30
REMARK   13  A    between atoms: _29  and  _32
REMARK   14  A    between atoms: _32  and  _33
REMARK   15  A    between atoms: _36  and  _38
REMARK   16  A    between atoms: _38  and  _39
REMARK   17  A    between atoms: _38  and  _41
REMARK   18  A    between atoms: _41  and  _42
REMARK   19  A    between atoms: _45  and  _47
REMARK   20  A    between atoms: _47  and  _48
REMARK   21  A    between atoms: _47  and  _50
REMARK   22  A    between atoms: _50  and  _51
REMARK   23  A    between atoms: _54  and  _56
REMARK   24  A    between atoms: _56  and  _57
REMARK   25  A    between atoms: _59  and  _61
REMARK   26  A    between atoms: _61  and  _62
REMARK   27  A    between atoms: _65  and  _67
REMARK   28  A    between atoms: _67  and  _68
REMARK   29  A    between atoms: _67  and  _70
REMARK   30  A    between atoms: _70  and  _71
REMARK   31  A    between atoms: _74  and  _76
REMARK   32  A    between atoms: _76  and  _77
REMARK   33  A    between atoms: _76  and  _79
REMARK   34  A    between atoms: _79  and  _80
REMARK   35  A    between atoms: _83  and  _85
REMARK   36  A    between atoms: _85  and  _86
REMARK   37  A    between atoms: _85  and  _88
REMARK   38  A    between atoms: _88  and  _89
REMARK   39  A    between atoms: _92  and  _94
REMARK   40  A    between atoms: _94  and  _95
REMARK   41  A    between atoms: _94  and  _97
REMARK   42  A    between atoms: _100  and  _102
REMARK   43  A    between atoms: _102  and  _103
REMARK   44  A    between atoms: _102  and  _105
REMARK   45  A    between atoms: _105  and  _106
REMARK   46  A    between atoms: _109  and  _111
REMARK   47  A    between atoms: _111  and  _112
REMARK   48  A    between atoms: _111  and  _114
REMARK   49  A    between atoms: _114  and  _115
REMARK   50  A    between atoms: _115  and  _116
REMARK   51  A    between atoms: _119  and  _121
REMARK   52  A    between atoms: _121  and  _122
REMARK   53  A    between atoms: _121  and  _124
REMARK   54  A    between atoms: _124  and  _125
REMARK   55  A    between atoms: _125  and  _126
REMARK   56  A    between atoms: _126  and  _127
REMARK   57  A    between atoms: _127  and  _128
REMARK   58  A    between atoms: _132  and  _134
REMARK   59  A    between atoms: _134  and  _135
REMARK   60  A    between atoms: _134  and  _137
REMARK   61  A    between atoms: _137  and  _138
REMARK   62  A    between atoms: _138  and  _139
REMARK   63  A    between atoms: _141  and  _143
REMARK   64  A    between atoms: _143  and  _144
REMARK   65  A    between atoms: _143  and  _146
REMARK   66  A    between atoms: _146  and  _147
REMARK   67  A    between atoms: _150  and  _152
REMARK   68  A    between atoms: _152  and  _153
REMARK   69  A    between atoms: _155  and  _157
REMARK   70  A    between atoms: _157  and  _158
REMARK   71  A    between atoms: _160  and  _162
REMARK   72  A    between atoms: _162  and  _163
REMARK   73  A    between atoms: _162  and  _165
REMARK   74  A    between atoms: _165  and  _166
REMARK   75  A    between atoms: _169  and  _171
REMARK   76  A    between atoms: _171  and  _172
REMARK   77  A    between atoms: _174  and  _176
REMARK   78  A    between atoms: _176  and  _177
REMARK   79  A    between atoms: _179  and  _181
REMARK   80  A    between atoms: _181  and  _182
REMARK   81  A    between atoms: _181  and  _184
REMARK   82  A    between atoms: _184  and  _185
REMARK   83  A    between atoms: _191  and  _193
REMARK   84  A    between atoms: _193  and  _194
REMARK   85  A    between atoms: _193  and  _196
REMARK   86  A    between atoms: _196  and  _197
REMARK   87  A    between atoms: _200  and  _202
REMARK   88  A    between atoms: _202  and  _203
REMARK   89  A    between atoms: _202  and  _205
REMARK   90  A    between atoms: _208  and  _210
REMARK   91  A    between atoms: _210  and  _211
REMARK   92  A    between atoms: _210  and  _213
REMARK   93  A    between atoms: _213  and  _214
REMARK   94  A    between atoms: _217  and  _219
REMARK   95  A    between atoms: _219  and  _220
REMARK   96  A    between atoms: _219  and  _222
REMARK   97  A    between atoms: _222  and  _223
REMARK   98  A    between atoms: _227  and  _228
REMARK   99  A    between atoms: _233  and  _235
REMARK  100  A    between atoms: _235  and  _236
REMARK  101  A    between atoms: _235  and  _238
REMARK  102  A    between atoms: _238  and  _239
REMARK  103  A    between atoms: _242  and  _244
REMARK  104  A    between atoms: _244  and  _245
REMARK  105  A    between atoms: _244  and  _247
REMARK  106  A    between atoms: _247  and  _248
REMARK  107  A    between atoms: _253  and  _255
REMARK  108  A    between atoms: _255  and  _256
REMARK  109  A    between atoms: _255  and  _258
REMARK  110  A    between atoms: _261  and  _263
REMARK  111  A    between atoms: _263  and  _264
REMARK  112  A    between atoms: _263  and  _266
REMARK  113  A    between atoms: _266  and  _267
REMARK  114  A    between atoms: _270  and  _272
REMARK  115  A    between atoms: _272  and  _273
REMARK  116  A    between atoms: _275  and  _277
REMARK  117  A    between atoms: _277  and  _278
REMARK  118  A    between atoms: _277  and  _280
REMARK  119  A    between atoms: _280  and  _281
REMARK  120  A    between atoms: _281  and  _282
REMARK  121  A    between atoms: _282  and  _283
REMARK  122  A    between atoms: _292  and  _294
REMARK  123  A    between atoms: _294  and  _295
REMARK  124  A    between atoms: _294  and  _297
REMARK  125  A    between atoms: _297  and  _298
REMARK  126  A    between atoms: _303  and  _305
REMARK  127  A    between atoms: _305  and  _306
REMARK  128  A    between atoms: _305  and  _308
REMARK  129  A    between atoms: _308  and  _309
REMARK  130  A    between atoms: _309  and  _310
REMARK  131  A    between atoms: _310  and  _311
REMARK  132  A    between atoms: _320  and  _322
REMARK  133  A    between atoms: _322  and  _323
REMARK  134  A    between atoms: _322  and  _325
REMARK  135  A    between atoms: _325  and  _326
REMARK  136  A    between atoms: _329  and  _331
REMARK  137  A    between atoms: _331  and  _332
REMARK  138  A    between atoms: _331  and  _334
REMARK  139  A    between atoms: _334  and  _335
REMARK  140  A    between atoms: _338  and  _340
REMARK  141  A    between atoms: _340  and  _341
REMARK  142  A    between atoms: _340  and  _343
REMARK  143  A    between atoms: _343  and  _344
REMARK  144  A    between atoms: _347  and  _349
REMARK  145  A    between atoms: _349  and  _350
REMARK  146  A    between atoms: _349  and  _352
REMARK  147  A    between atoms: _352  and  _353
REMARK  148  A    between atoms: _356  and  _358
REMARK  149  A    between atoms: _358  and  _359
REMARK  150  A    between atoms: _358  and  _361
REMARK  151  A    between atoms: _361  and  _362
REMARK  152  A    between atoms: _365  and  _367
REMARK  153  A    between atoms: _367  and  _368
REMARK  154  A    between atoms: _370  and  _372
REMARK  155  A    between atoms: _372  and  _373
REMARK  156  A    between atoms: _376  and  _378
REMARK  157  A    between atoms: _378  and  _379
REMARK  158  A    between atoms: _378  and  _381
REMARK  159  A    between atoms: _381  and  _382
REMARK  160  A    between atoms: _385  and  _387
REMARK  161  A    between atoms: _387  and  _388
REMARK  162  A    between atoms: _387  and  _390
REMARK  163  A    between atoms: _390  and  _391
REMARK  164  A    between atoms: _394  and  _396
REMARK  165  A    between atoms: _396  and  _397
REMARK  166  A    between atoms: _396  and  _399
REMARK  167  A    between atoms: _399  and  _400
REMARK  168  A    between atoms: _403  and  _405
REMARK  169  A    between atoms: _405  and  _406
REMARK  170  A    between atoms: _405  and  _408
REMARK  171  A    between atoms: _411  and  _413
REMARK  172  A    between atoms: _413  and  _414
REMARK  173  A    between atoms: _413  and  _416
REMARK  174  A    between atoms: _416  and  _417
REMARK  175  A    between atoms: _417  and  _418
REMARK  176  A    between atoms: _418  and  _419
REMARK  177  A    between atoms: _419  and  _420
REMARK  178  A    between atoms: _424  and  _426
REMARK  179  A    between atoms: _426  and  _427
REMARK  180  A    between atoms: _426  and  _429
REMARK  181  A    between atoms: _429  and  _430
REMARK  182  A    between atoms: _430  and  _431
REMARK  183  A    between atoms: _433  and  _435
REMARK  184  A    between atoms: _435  and  _436
REMARK  185  A    between atoms: _435  and  _438
REMARK  186  A    between atoms: _438  and  _439
REMARK  187  A    between atoms: _442  and  _444
REMARK  188  A    between atoms: _444  and  _445
REMARK  189  A    between atoms: _447  and  _449
REMARK  190  A    between atoms: _449  and  _450
REMARK  191  A    between atoms: _452  and  _454
REMARK  192  A    between atoms: _454  and  _455
REMARK  193  A    between atoms: _454  and  _457
REMARK  194  A    between atoms: _457  and  _458
REMARK  195  A    between atoms: _461  and  _463
REMARK  196  A    between atoms: _463  and  _464
REMARK  197  A    between atoms: _466  and  _468
REMARK  198  A    between atoms: _468  and  _469
REMARK  199  A    between atoms: _471  and  _473
REMARK  200  A    between atoms: _473  and  _474
REMARK  201  A    between atoms: _473  and  _476
REMARK  202  A    between atoms: _476  and  _477
REMARK  203  A    between atoms: _483  and  _485
REMARK  204  A    between atoms: _485  and  _486
REMARK  205  A    between atoms: _485  and  _488
REMARK  206  A    between atoms: _488  and  _489
REMARK  207  A    between atoms: _492  and  _494
REMARK  208  A    between atoms: _494  and  _495
REMARK  209  A    between atoms: _494  and  _497
REMARK  210  A    between atoms: _500  and  _502
REMARK  211  A    between atoms: _502  and  _503
REMARK  212  A    between atoms: _502  and  _505
REMARK  213  A    between atoms: _505  and  _506
REMARK  214  A    between atoms: _509  and  _511
REMARK  215  A    between atoms: _511  and  _512
REMARK  216  A    between atoms: _511  and  _514
REMARK  217  A    between atoms: _514  and  _515
REMARK  218  A    between atoms: _519  and  _520
REMARK  219  A    between atoms: _525  and  _527
REMARK  220  A    between atoms: _527  and  _528
REMARK  221  A    between atoms: _527  and  _530
REMARK  222  A    between atoms: _530  and  _531
REMARK  223  A    between atoms: _534  and  _536
REMARK  224  A    between atoms: _536  and  _537
REMARK  225  A    between atoms: _536  and  _539
REMARK  226  A    between atoms: _539  and  _540
REMARK  227  A    between atoms: _545  and  _547
REMARK  228  A    between atoms: _547  and  _548
REMARK  229  A    between atoms: _547  and  _550
REMARK  230  A    between atoms: _553  and  _555
REMARK  231  A    between atoms: _555  and  _556
REMARK  232  A    between atoms: _555  and  _558
REMARK  233  A    between atoms: _558  and  _559
REMARK  234  A    between atoms: _562  and  _564
REMARK  235  A    between atoms: _564  and  _565
REMARK  236  A    between atoms: _567  and  _569
REMARK  237  A    between atoms: _569  and  _570
REMARK  238  A    between atoms: _569  and  _572
REMARK  239  A    between atoms: _572  and  _573
REMARK  240  A    between atoms: _573  and  _574
REMARK  241  A    between atoms: _574  and  _575
REMARK                            x       y       z     vdW  Elec       q    Type
REMARK                         _______ _______ _______ _____ _____    ______ ____
ROOT
ATOM      1  O   HOH     1      20.286  24.959  12.833  0.00  0.00    +0.000 OA
ENDROOT
TORSDOF 0
REMARK  Name = ../refined-set-2016/4a4q/4a4q_pocket.pdb
REMARK  241 active torsions:
REMARK  status: ('A' for Active; 'I' for Inactive)
REMARK    1  A    between atoms: _1  and  _3
REMARK    2  A    between atoms: _3  and  _4
REMARK    3  A    between atoms: _3  and  _6
REMARK    4  A    between atoms: _6  and  _7
REMARK    5  A    between atoms: _7  and  _8
REMARK    6  A    between atoms: _8  and  _9
REMARK    7  A    between atoms: _18  and  _20
REMARK    8  A    between atoms: _20  and  _21
REMARK    9  A    between atoms: _20  and  _23
REMARK   10  A    between atoms: _23  and  _24
REMARK   11  A    between atoms: _27  and  _29
REMARK   12  A    between atoms: _29  and  _30
REMARK   13  A    between atoms: _29  and  _32
REMARK   14  A    between atoms: _32  and  _33
REMARK   15  A    between atoms: _36  and  _38
REMARK   16  A    between atoms: _38  and  _39
REMARK   17  A    between atoms: _38  and  _41
REMARK   18  A    between atoms: _41  and  _42
REMARK   19  A    between atoms: _45  and  _47
REMARK   20  A    between atoms: _47  and  _48
REMARK   21  A    between atoms: _47  and  _50
REMARK   22  A    between atoms: _50  and  _51
REMARK   23  A    between atoms: _54  and  _56
REMARK   24  A    between atoms: _56  and  _57
REMARK   25  A    between atoms: _59  and  _61
REMARK   26  A    between atoms: _61  and  _62
REMARK   27  A    between atoms: _65  and  _67
REMARK   28  A    between atoms: _67  and  _68
REMARK   29  A    between atoms: _67  and  _70
REMARK   30  A    between atoms: _70  and  _71
REMARK   31  A    between atoms: _74  and  _76
REMARK   32  A    between atoms: _76  and  _77
REMARK   33  A    between atoms: _76  and  _79
REMARK   34  A    between atoms: _79  and  _80
REMARK   35  A    between atoms: _83  and  _85
REMARK   36  A    between atoms: _85  and  _86
REMARK   37  A    between atoms: _85  and  _88
REMARK   38  A    between atoms: _88  and  _89
REMARK   39  A    between atoms: _92  and  _94
REMARK   40  A    between atoms: _94  and  _95
REMARK   41  A    between atoms: _94  and  _97
REMARK   42  A    between atoms: _100  and  _102
REMARK   43  A    between atoms: _102  and  _103
REMARK   44  A    between atoms: _102  and  _105
REMARK   45  A    between atoms: _105  and  _106
REMARK   46  A    between atoms: _109  and  _111
REMARK   47  A    between atoms: _111  and  _112
REMARK   48  A    between atoms: _111  and  _114
REMARK   49  A    between atoms: _114  and  _115
REMARK   50  A    between atoms: _115  and  _116
REMARK   51  A    between atoms: _119  and  _121
REMARK   52  A    between atoms: _121  and  _122
REMARK   53  A    between atoms: _121  and  _124
REMARK   54  A    between atoms: _124  and  _125
REMARK   55  A    between atoms: _125  and  _126
REMARK   56  A    between atoms: _126  and  _127
REMARK   57  A    between atoms: _127  and  _128
REMARK   58  A    between atoms: _132  and  _134
REMARK   59  A    between atoms: _134  and  _135
REMARK   60  A    between atoms: _134  and  _137
REMARK   61  A    between atoms: _137  and  _138
REMARK   62  A    between atoms: _138  and  _139
REMARK   63  A    between atoms: _141  and  _143
REMARK   64  A    between atoms: _143  and  _144
REMARK   65  A    between atoms: _143  and  _146
REMARK   66  A    between atoms: _146  and  _147
REMARK   67  A    between atoms: _150  and  _152
REMARK   68  A    between atoms: _152  and  _153
REMARK   69  A    between atoms: _155  and  _157
REMARK   70  A    between atoms: _157  and  _158
REMARK   71  A    between atoms: _160  and  _162
REMARK   72  A    between atoms: _162  and  _163
REMARK   73  A    between atoms: _162  and  _165
REMARK   74  A    between atoms: _165  and  _166
REMARK   75  A    between atoms: _169  and  _171
REMARK   76  A    between atoms: _171  and  _172
REMARK   77  A    between atoms: _174  and  _176
REMARK   78  A    between atoms: _176  and  _177
REMARK   79  A    between atoms: _179  and  _181
REMARK   80  A    between atoms: _181  and  _182
REMARK   81  A    between atoms: _181  and  _184
REMARK   82  A    between atoms: _184  and  _185
REMARK   83  A    between atoms: _191  and  _193
REMARK   84  A    between atoms: _193  and  _194
REMARK   85  A    between atoms: _193  and  _196
REMARK   86  A    between atoms: _196  and  _197
REMARK   87  A    between atoms: _200  and  _202
REMARK   88  A    between atoms: _202  and  _203
REMARK   89  A    between atoms: _202  and  _205
REMARK   90  A    between atoms: _208  and  _210
REMARK   91  A    between atoms: _210  and  _211
REMARK   92  A    between atoms: _210  and  _213
REMARK   93  A    between atoms: _213  and  _214
REMARK   94  A    between atoms: _217  and  _219
REMARK   95  A    between atoms: _219  and  _220
REMARK   96  A    between atoms: _219  and  _222
REMARK   97  A    between atoms: _222  and  _223
REMARK   98  A    between atoms: _227  and  _228
REMARK   99  A    between atoms: _233  and  _235
REMARK  100  A    between atoms: _235  and  _236
REMARK  101  A    between atoms: _235  and  _238
REMARK  102  A    between atoms: _238  and  _239
REMARK  103  A    between atoms: _242  and  _244
REMARK  104  A    between atoms: _244  and  _245
REMARK  105  A    between atoms: _244  and  _247
REMARK  106  A    between atoms: _247  and  _248
REMARK  107  A    between atoms: _253  and  _255
REMARK  108  A    between atoms: _255  and  _256
REMARK  109  A    between atoms: _255  and  _258
REMARK  110  A    between atoms: _261  and  _263
REMARK  111  A    between atoms: _263  and  _264
REMARK  112  A    between atoms: _263  and  _266
REMARK  113  A    between atoms: _266  and  _267
REMARK  114  A    between atoms: _270  and  _272
REMARK  115  A    between atoms: _272  and  _273
REMARK  116  A    between atoms: _275  and  _277
REMARK  117  A    between atoms: _277  and  _278
REMARK  118  A    between atoms: _277  and  _280
REMARK  119  A    between atoms: _280  and  _281
REMARK  120  A    between atoms: _281  and  _282
REMARK  121  A    between atoms: _282  and  _283
REMARK  122  A    between atoms: _292  and  _294
REMARK  123  A    between atoms: _294  and  _295
REMARK  124  A    between atoms: _294  and  _297
REMARK  125  A    between atoms: _297  and  _298
REMARK  126  A    between atoms: _303  and  _305
REMARK  127  A    between atoms: _305  and  _306
REMARK  128  A    between atoms: _305  and  _308
REMARK  129  A    between atoms: _308  and  _309
REMARK  130  A    between atoms: _309  and  _310
REMARK  131  A    between atoms: _310  and  _311
REMARK  132  A    between atoms: _320  and  _322
REMARK  133  A    between atoms: _322  and  _323
REMARK  134  A    between atoms: _322  and  _325
REMARK  135  A    between atoms: _325  and  _326
REMARK  136  A    between atoms: _329  and  _331
REMARK  137  A    between atoms: _331  and  _332
REMARK  138  A    between atoms: _331  and  _334
REMARK  139  A    between atoms: _334  and  _335
REMARK  140  A    between atoms: _338  and  _340
REMARK  141  A    between atoms: _340  and  _341
REMARK  142  A    between atoms: _340  and  _343
REMARK  143  A    between atoms: _343  and  _344
REMARK  144  A    between atoms: _347  and  _349
REMARK  145  A    between atoms: _349  and  _350
REMARK  146  A    between atoms: _349  and  _352
REMARK  147  A    between atoms: _352  and  _353
REMARK  148  A    between atoms: _356  and  _358
REMARK  149  A    between atoms: _358  and  _359
REMARK  150  A    between atoms: _358  and  _361
REMARK  151  A    between atoms: _361  and  _362
REMARK  152  A    between atoms: _365  and  _367
REMARK  153  A    between atoms: _367  and  _368
REMARK  154  A    between atoms: _370  and  _372
REMARK  155  A    between atoms: _372  and  _373
REMARK  156  A    between atoms: _376  and  _378
REMARK  157  A    between atoms: _378  and  _379
REMARK  158  A    between atoms: _378  and  _381
REMARK  159  A    between atoms: _381  and  _382
REMARK  160  A    between atoms: _385  and  _387
REMARK  161  A    between atoms: _387  and  _388
REMARK  162  A    between atoms: _387  and  _390
REMARK  163  A    between atoms: _390  and  _391
REMARK  164  A    between atoms: _394  and  _396
REMARK  165  A    between atoms: _396  and  _397
REMARK  166  A    between atoms: _396  and  _399
REMARK  167  A    between atoms: _399  and  _400
REMARK  168  A    between atoms: _403  and  _405
REMARK  169  A    between atoms: _405  and  _406
REMARK  170  A    between atoms: _405  and  _408
REMARK  171  A    between atoms: _411  and  _413
REMARK  172  A    between atoms: _413  and  _414
REMARK  173  A    between atoms: _413  and  _416
REMARK  174  A    between atoms: _416  and  _417
REMARK  175  A    between atoms: _417  and  _418
REMARK  176  A    between atoms: _418  and  _419
REMARK  177  A    between atoms: _419  and  _420
REMARK  178  A    between atoms: _424  and  _426
REMARK  179  A    between atoms: _426  and  _427
REMARK  180  A    between atoms: _426  and  _429
REMARK  181  A    between atoms: _429  and  _430
REMARK  182  A    between atoms: _430  and  _431
REMARK  183  A    between atoms: _433  and  _435
REMARK  184  A    between atoms: _435  and  _436
REMARK  185  A    between atoms: _435  and  _438
REMARK  186  A    between atoms: _438  and  _439
REMARK  187  A    between atoms: _442  and  _444
REMARK  188  A    between atoms: _444  and  _445
REMARK  189  A    between atoms: _447  and  _449
REMARK  190  A    between atoms: _449  and  _450
REMARK  191  A    between atoms: _452  and  _454
REMARK  192  A    between atoms: _454  and  _455
REMARK  193  A    between atoms: _454  and  _457
REMARK  194  A    between atoms: _457  and  _458
REMARK  195  A    between atoms: _461  and  _463
REMARK  196  A    between atoms: _463  and  _464
REMARK  197  A    between atoms: _466  and  _468
REMARK  198  A    between atoms: _468  and  _469
REMARK  199  A    between atoms: _471  and  _473
REMARK  200  A    between atoms: _473  and  _474
REMARK  201  A    between atoms: _473  and  _476
REMARK  202  A    between atoms: _476  and  _477
REMARK  203  A    between atoms: _483  and  _485
REMARK  204  A    between atoms: _485  and  _486
REMARK  205  A    between atoms: _485  and  _488
REMARK  206  A    between atoms: _488  and  _489
REMARK  207  A    between atoms: _492  and  _494
REMARK  208  A    between atoms: _494  and  _495
REMARK  209  A    between atoms: _494  and  _497
REMARK  210  A    between atoms: _500  and  _502
REMARK  211  A    between atoms: _502  and  _503
REMARK  212  A    between atoms: _502  and  _505
REMARK  213  A    between atoms: _505  and  _506
REMARK  214  A    between atoms: _509  and  _511
REMARK  215  A    between atoms: _511  and  _512
REMARK  216  A    between atoms: _511  and  _514
REMARK  217  A    between atoms: _514  and  _515
REMARK  218  A    between atoms: _519  and  _520
REMARK  219  A    between atoms: _525  and  _527
REMARK  220  A    between atoms: _527  and  _528
REMARK  221  A    between atoms: _527  and  _530
REMARK  222  A    between atoms: _530  and  _531
REMARK  223  A    between atoms: _534  and  _536
REMARK  224  A    between atoms: _536  and  _537
REMARK  225  A    between atoms: _536  and  _539
REMARK  226  A    between atoms: _539  and  _540
REMARK  227  A    between atoms: _545  and  _547
REMARK  228  A    between atoms: _547  and  _548
REMARK  229  A    between atoms: _547  and  _550
REMARK  230  A    between atoms: _553  and  _555
REMARK  231  A    between atoms: _555  and  _556
REMARK  232  A    between atoms: _555  and  _558
REMARK  233  A    between atoms: _558  and  _559
REMARK  234  A    between atoms: _562  and  _564
REMARK  235  A    between atoms: _564  and  _565
REMARK  236  A    between atoms: _567  and  _569
REMARK  237  A    between atoms: _569  and  _570
REMARK  238  A    between atoms: _569  and  _572
REMARK  239  A    between atoms: _572  and  _573
REMARK  240  A    between atoms: _573  and  _574
REMARK  241  A    between atoms: _574  and  _575
REMARK                            x       y       z     vdW  Elec       q    Type
REMARK                         _______ _______ _______ _____ _____    ______ ____
ROOT
ATOM      1  O   HOH     1      10.779  30.746   1.517  0.00  0.00    +0.000 OA
ENDROOT
TORSDOF 0
REMARK  Name = ../refined-set-2016/4a4q/4a4q_pocket.pdb
REMARK  241 active torsions:
REMARK  status: ('A' for Active; 'I' for Inactive)
REMARK    1  A    between atoms: _1  and  _3
REMARK    2  A    between atoms: _3  and  _4
REMARK    3  A    between atoms: _3  and  _6
REMARK    4  A    between atoms: _6  and  _7
REMARK    5  A    between atoms: _7  and  _8
REMARK    6  A    between atoms: _8  and  _9
REMARK    7  A    between atoms: _18  and  _20
REMARK    8  A    between atoms: _20  and  _21
REMARK    9  A    between atoms: _20  and  _23
REMARK   10  A    between atoms: _23  and  _24
REMARK   11  A    between atoms: _27  and  _29
REMARK   12  A    between atoms: _29  and  _30
REMARK   13  A    between atoms: _29  and  _32
REMARK   14  A    between atoms: _32  and  _33
REMARK   15  A    between atoms: _36  and  _38
REMARK   16  A    between atoms: _38  and  _39
REMARK   17  A    between atoms: _38  and  _41
REMARK   18  A    between atoms: _41  and  _42
REMARK   19  A    between atoms: _45  and  _47
REMARK   20  A    between atoms: _47  and  _48
REMARK   21  A    between atoms: _47  and  _50
REMARK   22  A    between atoms: _50  and  _51
REMARK   23  A    between atoms: _54  and  _56
REMARK   24  A    between atoms: _56  and  _57
REMARK   25  A    between atoms: _59  and  _61
REMARK   26  A    between atoms: _61  and  _62
REMARK   27  A    between atoms: _65  and  _67
REMARK   28  A    between atoms: _67  and  _68
REMARK   29  A    between atoms: _67  and  _70
REMARK   30  A    between atoms: _70  and  _71
REMARK   31  A    between atoms: _74  and  _76
REMARK   32  A    between atoms: _76  and  _77
REMARK   33  A    between atoms: _76  and  _79
REMARK   34  A    between atoms: _79  and  _80
REMARK   35  A    between atoms: _83  and  _85
REMARK   36  A    between atoms: _85  and  _86
REMARK   37  A    between atoms: _85  and  _88
REMARK   38  A    between atoms: _88  and  _89
REMARK   39  A    between atoms: _92  and  _94
REMARK   40  A    between atoms: _94  and  _95
REMARK   41  A    between atoms: _94  and  _97
REMARK   42  A    between atoms: _100  and  _102
REMARK   43  A    between atoms: _102  and  _103
REMARK   44  A    between atoms: _102  and  _105
REMARK   45  A    between atoms: _105  and  _106
REMARK   46  A    between atoms: _109  and  _111
REMARK   47  A    between atoms: _111  and  _112
REMARK   48  A    between atoms: _111  and  _114
REMARK   49  A    between atoms: _114  and  _115
REMARK   50  A    between atoms: _115  and  _116
REMARK   51  A    between atoms: _119  and  _121
REMARK   52  A    between atoms: _121  and  _122
REMARK   53  A    between atoms: _121  and  _124
REMARK   54  A    between atoms: _124  and  _125
REMARK   55  A    between atoms: _125  and  _126
REMARK   56  A    between atoms: _126  and  _127
REMARK   57  A    between atoms: _127  and  _128
REMARK   58  A    between atoms: _132  and  _134
REMARK   59  A    between atoms: _134  and  _135
REMARK   60  A    between atoms: _134  and  _137
REMARK   61  A    between atoms: _137  and  _138
REMARK   62  A    between atoms: _138  and  _139
REMARK   63  A    between atoms: _141  and  _143
REMARK   64  A    between atoms: _143  and  _144
REMARK   65  A    between atoms: _143  and  _146
REMARK   66  A    between atoms: _146  and  _147
REMARK   67  A    between atoms: _150  and  _152
REMARK   68  A    between atoms: _152  and  _153
REMARK   69  A    between atoms: _155  and  _157
REMARK   70  A    between atoms: _157  and  _158
REMARK   71  A    between atoms: _160  and  _162
REMARK   72  A    between atoms: _162  and  _163
REMARK   73  A    between atoms: _162  and  _165
REMARK   74  A    between atoms: _165  and  _166
REMARK   75  A    between atoms: _169  and  _171
REMARK   76  A    between atoms: _171  and  _172
REMARK   77  A    between atoms: _174  and  _176
REMARK   78  A    between atoms: _176  and  _177
REMARK   79  A    between atoms: _179  and  _181
REMARK   80  A    between atoms: _181  and  _182
REMARK   81  A    between atoms: _181  and  _184
REMARK   82  A    between atoms: _184  and  _185
REMARK   83  A    between atoms: _191  and  _193
REMARK   84  A    between atoms: _193  and  _194
REMARK   85  A    between atoms: _193  and  _196
REMARK   86  A    between atoms: _196  and  _197
REMARK   87  A    between atoms: _200  and  _202
REMARK   88  A    between atoms: _202  and  _203
REMARK   89  A    between atoms: _202  and  _205
REMARK   90  A    between atoms: _208  and  _210
REMARK   91  A    between atoms: _210  and  _211
REMARK   92  A    between atoms: _210  and  _213
REMARK   93  A    between atoms: _213  and  _214
REMARK   94  A    between atoms: _217  and  _219
REMARK   95  A    between atoms: _219  and  _220
REMARK   96  A    between atoms: _219  and  _222
REMARK   97  A    between atoms: _222  and  _223
REMARK   98  A    between atoms: _227  and  _228
REMARK   99  A    between atoms: _233  and  _235
REMARK  100  A    between atoms: _235  and  _236
REMARK  101  A    between atoms: _235  and  _238
REMARK  102  A    between atoms: _238  and  _239
REMARK  103  A    between atoms: _242  and  _244
REMARK  104  A    between atoms: _244  and  _245
REMARK  105  A    between atoms: _244  and  _247
REMARK  106  A    between atoms: _247  and  _248
REMARK  107  A    between atoms: _253  and  _255
REMARK  108  A    between atoms: _255  and  _256
REMARK  109  A    between atoms: _255  and  _258
REMARK  110  A    between atoms: _261  and  _263
REMARK  111  A    between atoms: _263  and  _264
REMARK  112  A    between atoms: _263  and  _266
REMARK  113  A    between atoms: _266  and  _267
REMARK  114  A    between atoms: _270  and  _272
REMARK  115  A    between atoms: _272  and  _273
REMARK  116  A    between atoms: _275  and  _277
REMARK  117  A    between atoms: _277  and  _278
REMARK  118  A    between atoms: _277  and  _280
REMARK  119  A    between atoms: _280  and  _281
REMARK  120  A    between atoms: _281  and  _282
REMARK  121  A    between atoms: _282  and  _283
REMARK  122  A    between atoms: _292  and  _294
REMARK  123  A    between atoms: _294  and  _295
REMARK  124  A    between atoms: _294  and  _297
REMARK  125  A    between atoms: _297  and  _298
REMARK  126  A    between atoms: _303  and  _305
REMARK  127  A    between atoms: _305  and  _306
REMARK  128  A    between atoms: _305  and  _308
REMARK  129  A    between atoms: _308  and  _309
REMARK  130  A    between atoms: _309  and  _310
REMARK  131  A    between atoms: _310  and  _311
REMARK  132  A    between atoms: _320  and  _322
REMARK  133  A    between atoms: _322  and  _323
REMARK  134  A    between atoms: _322  and  _325
REMARK  135  A    between atoms: _325  and  _326
REMARK  136  A    between atoms: _329  and  _331
REMARK  137  A    between atoms: _331  and  _332
REMARK  138  A    between atoms: _331  and  _334
REMARK  139  A    between atoms: _334  and  _335
REMARK  140  A    between atoms: _338  and  _340
REMARK  141  A    between atoms: _340  and  _341
REMARK  142  A    between atoms: _340  and  _343
REMARK  143  A    between atoms: _343  and  _344
REMARK  144  A    between atoms: _347  and  _349
REMARK  145  A    between atoms: _349  and  _350
REMARK  146  A    between atoms: _349  and  _352
REMARK  147  A    between atoms: _352  and  _353
REMARK  148  A    between atoms: _356  and  _358
REMARK  149  A    between atoms: _358  and  _359
REMARK  150  A    between atoms: _358  and  _361
REMARK  151  A    between atoms: _361  and  _362
REMARK  152  A    between atoms: _365  and  _367
REMARK  153  A    between atoms: _367  and  _368
REMARK  154  A    between atoms: _370  and  _372
REMARK  155  A    between atoms: _372  and  _373
REMARK  156  A    between atoms: _376  and  _378
REMARK  157  A    between atoms: _378  and  _379
REMARK  158  A    between atoms: _378  and  _381
REMARK  159  A    between atoms: _381  and  _382
REMARK  160  A    between atoms: _385  and  _387
REMARK  161  A    between atoms: _387  and  _388
REMARK  162  A    between atoms: _387  and  _390
REMARK  163  A    between atoms: _390  and  _391
REMARK  164  A    between atoms: _394  and  _396
REMARK  165  A    between atoms: _396  and  _397
REMARK  166  A    between atoms: _396  and  _399
REMARK  167  A    between atoms: _399  and  _400
REMARK  168  A    between atoms: _403  and  _405
REMARK  169  A    between atoms: _405  and  _406
REMARK  170  A    between atoms: _405  and  _408
REMARK  171  A    between atoms: _411  and  _413
REMARK  172  A    between atoms: _413  and  _414
REMARK  173  A    between atoms: _413  and  _416
REMARK  174  A    between atoms: _416  and  _417
REMARK  175  A    between atoms: _417  and  _418
REMARK  176  A    between atoms: _418  and  _419
REMARK  177  A    between atoms: _419  and  _420
REMARK  178  A    between atoms: _424  and  _426
REMARK  179  A    between atoms: _426  and  _427
REMARK  180  A    between atoms: _426  and  _429
REMARK  181  A    between atoms: _429  and  _430
REMARK  182  A    between atoms: _430  and  _431
REMARK  183  A    between atoms: _433  and  _435
REMARK  184  A    between atoms: _435  and  _436
REMARK  185  A    between atoms: _435  and  _438
REMARK  186  A    between atoms: _438  and  _439
REMARK  187  A    between atoms: _442  and  _444
REMARK  188  A    between atoms: _444  and  _445
REMARK  189  A    between atoms: _447  and  _449
REMARK  190  A    between atoms: _449  and  _450
REMARK  191  A    between atoms: _452  and  _454
REMARK  192  A    between atoms: _454  and  _455
REMARK  193  A    between atoms: _454  and  _457
REMARK  194  A    between atoms: _457  and  _458
REMARK  195  A    between atoms: _461  and  _463
REMARK  196  A    between atoms: _463  and  _464
REMARK  197  A    between atoms: _466  and  _468
REMARK  198  A    between atoms: _468  and  _469
REMARK  199  A    between atoms: _471  and  _473
REMARK  200  A    between atoms: _473  and  _474
REMARK  201  A    between atoms: _473  and  _476
REMARK  202  A    between atoms: _476  and  _477
REMARK  203  A    between atoms: _483  and  _485
REMARK  204  A    between atoms: _485  and  _486
REMARK  205  A    between atoms: _485  and  _488
REMARK  206  A    between atoms: _488  and  _489
REMARK  207  A    between atoms: _492  and  _494
REMARK  208  A    between atoms: _494  and  _495
REMARK  209  A    between atoms: _494  and  _497
REMARK  210  A    between atoms: _500  and  _502
REMARK  211  A    between atoms: _502  and  _503
REMARK  212  A    between atoms: _502  and  _505
REMARK  213  A    between atoms: _505  and  _506
REMARK  214  A    between atoms: _509  and  _511
REMARK  215  A    between atoms: _511  and  _512
REMARK  216  A    between atoms: _511  and  _514
REMARK  217  A    between atoms: _514  and  _515
REMARK  218  A    between atoms: _519  and  _520
REMARK  219  A    between atoms: _525  and  _527
REMARK  220  A    between atoms: _527  and  _528
REMARK  221  A    between atoms: _527  and  _530
REMARK  222  A    between atoms: _530  and  _531
REMARK  223  A    between atoms: _534  and  _536
REMARK  224  A    between atoms: _536  and  _537
REMARK  225  A    between atoms: _536  and  _539
REMARK  226  A    between atoms: _539  and  _540
REMARK  227  A    between atoms: _545  and  _547
REMARK  228  A    between atoms: _547  and  _548
REMARK  229  A    between atoms: _547  and  _550
REMARK  230  A    between atoms: _553  and  _555
REMARK  231  A    between atoms: _555  and  _556
REMARK  232  A    between atoms: _555  and  _558
REMARK  233  A    between atoms: _558  and  _559
REMARK  234  A    between atoms: _562  and  _564
REMARK  235  A    between atoms: _564  and  _565
REMARK  236  A    between atoms: _567  and  _569
REMARK  237  A    between atoms: _569  and  _570
REMARK  238  A    between atoms: _569  and  _572
REMARK  239  A    between atoms: _572  and  _573
REMARK  240  A    between atoms: _573  and  _574
REMARK  241  A    between atoms: _574  and  _575
REMARK                            x       y       z     vdW  Elec       q    Type
REMARK                         _______ _______ _______ _____ _____    ______ ____
ROOT
ATOM      1  O   HOH     1       8.826  29.072   2.063  0.00  0.00    +0.000 OA
ENDROOT
TORSDOF 0
REMARK  Name = ../refined-set-2016/4a4q/4a4q_pocket.pdb
REMARK  241 active torsions:
REMARK  status: ('A' for Active; 'I' for Inactive)
REMARK    1  A    between atoms: _1  and  _3
REMARK    2  A    between atoms: _3  and  _4
REMARK    3  A    between atoms: _3  and  _6
REMARK    4  A    between atoms: _6  and  _7
REMARK    5  A    between atoms: _7  and  _8
REMARK    6  A    between atoms: _8  and  _9
REMARK    7  A    between atoms: _18  and  _20
REMARK    8  A    between atoms: _20  and  _21
REMARK    9  A    between atoms: _20  and  _23
REMARK   10  A    between atoms: _23  and  _24
REMARK   11  A    between atoms: _27  and  _29
REMARK   12  A    between atoms: _29  and  _30
REMARK   13  A    between atoms: _29  and  _32
REMARK   14  A    between atoms: _32  and  _33
REMARK   15  A    between atoms: _36  and  _38
REMARK   16  A    between atoms: _38  and  _39
REMARK   17  A    between atoms: _38  and  _41
REMARK   18  A    between atoms: _41  and  _42
REMARK   19  A    between atoms: _45  and  _47
REMARK   20  A    between atoms: _47  and  _48
REMARK   21  A    between atoms: _47  and  _50
REMARK   22  A    between atoms: _50  and  _51
REMARK   23  A    between atoms: _54  and  _56
REMARK   24  A    between atoms: _56  and  _57
REMARK   25  A    between atoms: _59  and  _61
REMARK   26  A    between atoms: _61  and  _62
REMARK   27  A    between atoms: _65  and  _67
REMARK   28  A    between atoms: _67  and  _68
REMARK   29  A    between atoms: _67  and  _70
REMARK   30  A    between atoms: _70  and  _71
REMARK   31  A    between atoms: _74  and  _76
REMARK   32  A    between atoms: _76  and  _77
REMARK   33  A    between atoms: _76  and  _79
REMARK   34  A    between atoms: _79  and  _80
REMARK   35  A    between atoms: _83  and  _85
REMARK   36  A    between atoms: _85  and  _86
REMARK   37  A    between atoms: _85  and  _88
REMARK   38  A    between atoms: _88  and  _89
REMARK   39  A    between atoms: _92  and  _94
REMARK   40  A    between atoms: _94  and  _95
REMARK   41  A    between atoms: _94  and  _97
REMARK   42  A    between atoms: _100  and  _102
REMARK   43  A    between atoms: _102  and  _103
REMARK   44  A    between atoms: _102  and  _105
REMARK   45  A    between atoms: _105  and  _106
REMARK   46  A    between atoms: _109  and  _111
REMARK   47  A    between atoms: _111  and  _112
REMARK   48  A    between atoms: _111  and  _114
REMARK   49  A    between atoms: _114  and  _115
REMARK   50  A    between atoms: _115  and  _116
REMARK   51  A    between atoms: _119  and  _121
REMARK   52  A    between atoms: _121  and  _122
REMARK   53  A    between atoms: _121  and  _124
REMARK   54  A    between atoms: _124  and  _125
REMARK   55  A    between atoms: _125  and  _126
REMARK   56  A    between atoms: _126  and  _127
REMARK   57  A    between atoms: _127  and  _128
REMARK   58  A    between atoms: _132  and  _134
REMARK   59  A    between atoms: _134  and  _135
REMARK   60  A    between atoms: _134  and  _137
REMARK   61  A    between atoms: _137  and  _138
REMARK   62  A    between atoms: _138  and  _139
REMARK   63  A    between atoms: _141  and  _143
REMARK   64  A    between atoms: _143  and  _144
REMARK   65  A    between atoms: _143  and  _146
REMARK   66  A    between atoms: _146  and  _147
REMARK   67  A    between atoms: _150  and  _152
REMARK   68  A    between atoms: _152  and  _153
REMARK   69  A    between atoms: _155  and  _157
REMARK   70  A    between atoms: _157  and  _158
REMARK   71  A    between atoms: _160  and  _162
REMARK   72  A    between atoms: _162  and  _163
REMARK   73  A    between atoms: _162  and  _165
REMARK   74  A    between atoms: _165  and  _166
REMARK   75  A    between atoms: _169  and  _171
REMARK   76  A    between atoms: _171  and  _172
REMARK   77  A    between atoms: _174  and  _176
REMARK   78  A    between atoms: _176  and  _177
REMARK   79  A    between atoms: _179  and  _181
REMARK   80  A    between atoms: _181  and  _182
REMARK   81  A    between atoms: _181  and  _184
REMARK   82  A    between atoms: _184  and  _185
REMARK   83  A    between atoms: _191  and  _193
REMARK   84  A    between atoms: _193  and  _194
REMARK   85  A    between atoms: _193  and  _196
REMARK   86  A    between atoms: _196  and  _197
REMARK   87  A    between atoms: _200  and  _202
REMARK   88  A    between atoms: _202  and  _203
REMARK   89  A    between atoms: _202  and  _205
REMARK   90  A    between atoms: _208  and  _210
REMARK   91  A    between atoms: _210  and  _211
REMARK   92  A    between atoms: _210  and  _213
REMARK   93  A    between atoms: _213  and  _214
REMARK   94  A    between atoms: _217  and  _219
REMARK   95  A    between atoms: _219  and  _220
REMARK   96  A    between atoms: _219  and  _222
REMARK   97  A    between atoms: _222  and  _223
REMARK   98  A    between atoms: _227  and  _228
REMARK   99  A    between atoms: _233  and  _235
REMARK  100  A    between atoms: _235  and  _236
REMARK  101  A    between atoms: _235  and  _238
REMARK  102  A    between atoms: _238  and  _239
REMARK  103  A    between atoms: _242  and  _244
REMARK  104  A    between atoms: _244  and  _245
REMARK  105  A    between atoms: _244  and  _247
REMARK  106  A    between atoms: _247  and  _248
REMARK  107  A    between atoms: _253  and  _255
REMARK  108  A    between atoms: _255  and  _256
REMARK  109  A    between atoms: _255  and  _258
REMARK  110  A    between atoms: _261  and  _263
REMARK  111  A    between atoms: _263  and  _264
REMARK  112  A    between atoms: _263  and  _266
REMARK  113  A    between atoms: _266  and  _267
REMARK  114  A    between atoms: _270  and  _272
REMARK  115  A    between atoms: _272  and  _273
REMARK  116  A    between atoms: _275  and  _277
REMARK  117  A    between atoms: _277  and  _278
REMARK  118  A    between atoms: _277  and  _280
REMARK  119  A    between atoms: _280  and  _281
REMARK  120  A    between atoms: _281  and  _282
REMARK  121  A    between atoms: _282  and  _283
REMARK  122  A    between atoms: _292  and  _294
REMARK  123  A    between atoms: _294  and  _295
REMARK  124  A    between atoms: _294  and  _297
REMARK  125  A    between atoms: _297  and  _298
REMARK  126  A    between atoms: _303  and  _305
REMARK  127  A    between atoms: _305  and  _306
REMARK  128  A    between atoms: _305  and  _308
REMARK  129  A    between atoms: _308  and  _309
REMARK  130  A    between atoms: _309  and  _310
REMARK  131  A    between atoms: _310  and  _311
REMARK  132  A    between atoms: _320  and  _322
REMARK  133  A    between atoms: _322  and  _323
REMARK  134  A    between atoms: _322  and  _325
REMARK  135  A    between atoms: _325  and  _326
REMARK  136  A    between atoms: _329  and  _331
REMARK  137  A    between atoms: _331  and  _332
REMARK  138  A    between atoms: _331  and  _334
REMARK  139  A    between atoms: _334  and  _335
REMARK  140  A    between atoms: _338  and  _340
REMARK  141  A    between atoms: _340  and  _341
REMARK  142  A    between atoms: _340  and  _343
REMARK  143  A    between atoms: _343  and  _344
REMARK  144  A    between atoms: _347  and  _349
REMARK  145  A    between atoms: _349  and  _350
REMARK  146  A    between atoms: _349  and  _352
REMARK  147  A    between atoms: _352  and  _353
REMARK  148  A    between atoms: _356  and  _358
REMARK  149  A    between atoms: _358  and  _359
REMARK  150  A    between atoms: _358  and  _361
REMARK  151  A    between atoms: _361  and  _362
REMARK  152  A    between atoms: _365  and  _367
REMARK  153  A    between atoms: _367  and  _368
REMARK  154  A    between atoms: _370  and  _372
REMARK  155  A    between atoms: _372  and  _373
REMARK  156  A    between atoms: _376  and  _378
REMARK  157  A    between atoms: _378  and  _379
REMARK  158  A    between atoms: _378  and  _381
REMARK  159  A    between atoms: _381  and  _382
REMARK  160  A    between atoms: _385  and  _387
REMARK  161  A    between atoms: _387  and  _388
REMARK  162  A    between atoms: _387  and  _390
REMARK  163  A    between atoms: _390  and  _391
REMARK  164  A    between atoms: _394  and  _396
REMARK  165  A    between atoms: _396  and  _397
REMARK  166  A    between atoms: _396  and  _399
REMARK  167  A    between atoms: _399  and  _400
REMARK  168  A    between atoms: _403  and  _405
REMARK  169  A    between atoms: _405  and  _406
REMARK  170  A    between atoms: _405  and  _408
REMARK  171  A    between atoms: _411  and  _413
REMARK  172  A    between atoms: _413  and  _414
REMARK  173  A    between atoms: _413  and  _416
REMARK  174  A    between atoms: _416  and  _417
REMARK  175  A    between atoms: _417  and  _418
REMARK  176  A    between atoms: _418  and  _419
REMARK  177  A    between atoms: _419  and  _420
REMARK  178  A    between atoms: _424  and  _426
REMARK  179  A    between atoms: _426  and  _427
REMARK  180  A    between atoms: _426  and  _429
REMARK  181  A    between atoms: _429  and  _430
REMARK  182  A    between atoms: _430  and  _431
REMARK  183  A    between atoms: _433  and  _435
REMARK  184  A    between atoms: _435  and  _436
REMARK  185  A    between atoms: _435  and  _438
REMARK  186  A    between atoms: _438  and  _439
REMARK  187  A    between atoms: _442  and  _444
REMARK  188  A    between atoms: _444  and  _445
REMARK  189  A    between atoms: _447  and  _449
REMARK  190  A    between atoms: _449  and  _450
REMARK  191  A    between atoms: _452  and  _454
REMARK  192  A    between atoms: _454  and  _455
REMARK  193  A    between atoms: _454  and  _457
REMARK  194  A    between atoms: _457  and  _458
REMARK  195  A    between atoms: _461  and  _463
REMARK  196  A    between atoms: _463  and  _464
REMARK  197  A    between atoms: _466  and  _468
REMARK  198  A    between atoms: _468  and  _469
REMARK  199  A    between atoms: _471  and  _473
REMARK  200  A    between atoms: _473  and  _474
REMARK  201  A    between atoms: _473  and  _476
REMARK  202  A    between atoms: _476  and  _477
REMARK  203  A    between atoms: _483  and  _485
REMARK  204  A    between atoms: _485  and  _486
REMARK  205  A    between atoms: _485  and  _488
REMARK  206  A    between atoms: _488  and  _489
REMARK  207  A    between atoms: _492  and  _494
REMARK  208  A    between atoms: _494  and  _495
REMARK  209  A    between atoms: _494  and  _497
REMARK  210  A    between atoms: _500  and  _502
REMARK  211  A    between atoms: _502  and  _503
REMARK  212  A    between atoms: _502  and  _505
REMARK  213  A    between atoms: _505  and  _506
REMARK  214  A    between atoms: _509  and  _511
REMARK  215  A    between atoms: _511  and  _512
REMARK  216  A    between atoms: _511  and  _514
REMARK  217  A    between atoms: _514  and  _515
REMARK  218  A    between atoms: _519  and  _520
REMARK  219  A    between atoms: _525  and  _527
REMARK  220  A    between atoms: _527  and  _528
REMARK  221  A    between atoms: _527  and  _530
REMARK  222  A    between atoms: _530  and  _531
REMARK  223  A    between atoms: _534  and  _536
REMARK  224  A    between atoms: _536  and  _537
REMARK  225  A    between atoms: _536  and  _539
REMARK  226  A    between atoms: _539  and  _540
REMARK  227  A    between atoms: _545  and  _547
REMARK  228  A    between atoms: _547  and  _548
REMARK  229  A    between atoms: _547  and  _550
REMARK  230  A    between atoms: _553  and  _555
REMARK  231  A    between atoms: _555  and  _556
REMARK  232  A    between atoms: _555  and  _558
REMARK  233  A    between atoms: _558  and  _559
REMARK  234  A    between atoms: _562  and  _564
REMARK  235  A    between atoms: _564  and  _565
REMARK  236  A    between atoms: _567  and  _569
REMARK  237  A    between atoms: _569  and  _570
REMARK  238  A    between atoms: _569  and  _572
REMARK  239  A    between atoms: _572  and  _573
REMARK  240  A    between atoms: _573  and  _574
REMARK  241  A    between atoms: _574  and  _575
REMARK                            x       y       z     vdW  Elec       q    Type
REMARK                         _______ _______ _______ _____ _____    ______ ____
ROOT
ATOM      1  O   HOH     1       5.951  27.983   1.711  0.00  0.00    +0.000 OA
ENDROOT
TORSDOF 0
REMARK  Name = ../refined-set-2016/4a4q/4a4q_pocket.pdb
REMARK  241 active torsions:
REMARK  status: ('A' for Active; 'I' for Inactive)
REMARK    1  A    between atoms: _1  and  _3
REMARK    2  A    between atoms: _3  and  _4
REMARK    3  A    between atoms: _3  and  _6
REMARK    4  A    between atoms: _6  and  _7
REMARK    5  A    between atoms: _7  and  _8
REMARK    6  A    between atoms: _8  and  _9
REMARK    7  A    between atoms: _18  and  _20
REMARK    8  A    between atoms: _20  and  _21
REMARK    9  A    between atoms: _20  and  _23
REMARK   10  A    between atoms: _23  and  _24
REMARK   11  A    between atoms: _27  and  _29
REMARK   12  A    between atoms: _29  and  _30
REMARK   13  A    between atoms: _29  and  _32
REMARK   14  A    between atoms: _32  and  _33
REMARK   15  A    between atoms: _36  and  _38
REMARK   16  A    between atoms: _38  and  _39
REMARK   17  A    between atoms: _38  and  _41
REMARK   18  A    between atoms: _41  and  _42
REMARK   19  A    between atoms: _45  and  _47
REMARK   20  A    between atoms: _47  and  _48
REMARK   21  A    between atoms: _47  and  _50
REMARK   22  A    between atoms: _50  and  _51
REMARK   23  A    between atoms: _54  and  _56
REMARK   24  A    between atoms: _56  and  _57
REMARK   25  A    between atoms: _59  and  _61
REMARK   26  A    between atoms: _61  and  _62
REMARK   27  A    between atoms: _65  and  _67
REMARK   28  A    between atoms: _67  and  _68
REMARK   29  A    between atoms: _67  and  _70
REMARK   30  A    between atoms: _70  and  _71
REMARK   31  A    between atoms: _74  and  _76
REMARK   32  A    between atoms: _76  and  _77
REMARK   33  A    between atoms: _76  and  _79
REMARK   34  A    between atoms: _79  and  _80
REMARK   35  A    between atoms: _83  and  _85
REMARK   36  A    between atoms: _85  and  _86
REMARK   37  A    between atoms: _85  and  _88
REMARK   38  A    between atoms: _88  and  _89
REMARK   39  A    between atoms: _92  and  _94
REMARK   40  A    between atoms: _94  and  _95
REMARK   41  A    between atoms: _94  and  _97
REMARK   42  A    between atoms: _100  and  _102
REMARK   43  A    between atoms: _102  and  _103
REMARK   44  A    between atoms: _102  and  _105
REMARK   45  A    between atoms: _105  and  _106
REMARK   46  A    between atoms: _109  and  _111
REMARK   47  A    between atoms: _111  and  _112
REMARK   48  A    between atoms: _111  and  _114
REMARK   49  A    between atoms: _114  and  _115
REMARK   50  A    between atoms: _115  and  _116
REMARK   51  A    between atoms: _119  and  _121
REMARK   52  A    between atoms: _121  and  _122
REMARK   53  A    between atoms: _121  and  _124
REMARK   54  A    between atoms: _124  and  _125
REMARK   55  A    between atoms: _125  and  _126
REMARK   56  A    between atoms: _126  and  _127
REMARK   57  A    between atoms: _127  and  _128
REMARK   58  A    between atoms: _132  and  _134
REMARK   59  A    between atoms: _134  and  _135
REMARK   60  A    between atoms: _134  and  _137
REMARK   61  A    between atoms: _137  and  _138
REMARK   62  A    between atoms: _138  and  _139
REMARK   63  A    between atoms: _141  and  _143
REMARK   64  A    between atoms: _143  and  _144
REMARK   65  A    between atoms: _143  and  _146
REMARK   66  A    between atoms: _146  and  _147
REMARK   67  A    between atoms: _150  and  _152
REMARK   68  A    between atoms: _152  and  _153
REMARK   69  A    between atoms: _155  and  _157
REMARK   70  A    between atoms: _157  and  _158
REMARK   71  A    between atoms: _160  and  _162
REMARK   72  A    between atoms: _162  and  _163
REMARK   73  A    between atoms: _162  and  _165
REMARK   74  A    between atoms: _165  and  _166
REMARK   75  A    between atoms: _169  and  _171
REMARK   76  A    between atoms: _171  and  _172
REMARK   77  A    between atoms: _174  and  _176
REMARK   78  A    between atoms: _176  and  _177
REMARK   79  A    between atoms: _179  and  _181
REMARK   80  A    between atoms: _181  and  _182
REMARK   81  A    between atoms: _181  and  _184
REMARK   82  A    between atoms: _184  and  _185
REMARK   83  A    between atoms: _191  and  _193
REMARK   84  A    between atoms: _193  and  _194
REMARK   85  A    between atoms: _193  and  _196
REMARK   86  A    between atoms: _196  and  _197
REMARK   87  A    between atoms: _200  and  _202
REMARK   88  A    between atoms: _202  and  _203
REMARK   89  A    between atoms: _202  and  _205
REMARK   90  A    between atoms: _208  and  _210
REMARK   91  A    between atoms: _210  and  _211
REMARK   92  A    between atoms: _210  and  _213
REMARK   93  A    between atoms: _213  and  _214
REMARK   94  A    between atoms: _217  and  _219
REMARK   95  A    between atoms: _219  and  _220
REMARK   96  A    between atoms: _219  and  _222
REMARK   97  A    between atoms: _222  and  _223
REMARK   98  A    between atoms: _227  and  _228
REMARK   99  A    between atoms: _233  and  _235
REMARK  100  A    between atoms: _235  and  _236
REMARK  101  A    between atoms: _235  and  _238
REMARK  102  A    between atoms: _238  and  _239
REMARK  103  A    between atoms: _242  and  _244
REMARK  104  A    between atoms: _244  and  _245
REMARK  105  A    between atoms: _244  and  _247
REMARK  106  A    between atoms: _247  and  _248
REMARK  107  A    between atoms: _253  and  _255
REMARK  108  A    between atoms: _255  and  _256
REMARK  109  A    between atoms: _255  and  _258
REMARK  110  A    between atoms: _261  and  _263
REMARK  111  A    between atoms: _263  and  _264
REMARK  112  A    between atoms: _263  and  _266
REMARK  113  A    between atoms: _266  and  _267
REMARK  114  A    between atoms: _270  and  _272
REMARK  115  A    between atoms: _272  and  _273
REMARK  116  A    between atoms: _275  and  _277
REMARK  117  A    between atoms: _277  and  _278
REMARK  118  A    between atoms: _277  and  _280
REMARK  119  A    between atoms: _280  and  _281
REMARK  120  A    between atoms: _281  and  _282
REMARK  121  A    between atoms: _282  and  _283
REMARK  122  A    between atoms: _292  and  _294
REMARK  123  A    between atoms: _294  and  _295
REMARK  124  A    between atoms: _294  and  _297
REMARK  125  A    between atoms: _297  and  _298
REMARK  126  A    between atoms: _303  and  _305
REMARK  127  A    between atoms: _305  and  _306
REMARK  128  A    between atoms: _305  and  _308
REMARK  129  A    between atoms: _308  and  _309
REMARK  130  A    between atoms: _309  and  _310
REMARK  131  A    between atoms: _310  and  _311
REMARK  132  A    between atoms: _320  and  _322
REMARK  133  A    between atoms: _322  and  _323
REMARK  134  A    between atoms: _322  and  _325
REMARK  135  A    between atoms: _325  and  _326
REMARK  136  A    between atoms: _329  and  _331
REMARK  137  A    between atoms: _331  and  _332
REMARK  138  A    between atoms: _331  and  _334
REMARK  139  A    between atoms: _334  and  _335
REMARK  140  A    between atoms: _338  and  _340
REMARK  141  A    between atoms: _340  and  _341
REMARK  142  A    between atoms: _340  and  _343
REMARK  143  A    between atoms: _343  and  _344
REMARK  144  A    between atoms: _347  and  _349
REMARK  145  A    between atoms: _349  and  _350
REMARK  146  A    between atoms: _349  and  _352
REMARK  147  A    between atoms: _352  and  _353
REMARK  148  A    between atoms: _356  and  _358
REMARK  149  A    between atoms: _358  and  _359
REMARK  150  A    between atoms: _358  and  _361
REMARK  151  A    between atoms: _361  and  _362
REMARK  152  A    between atoms: _365  and  _367
REMARK  153  A    between atoms: _367  and  _368
REMARK  154  A    between atoms: _370  and  _372
REMARK  155  A    between atoms: _372  and  _373
REMARK  156  A    between atoms: _376  and  _378
REMARK  157  A    between atoms: _378  and  _379
REMARK  158  A    between atoms: _378  and  _381
REMARK  159  A    between atoms: _381  and  _382
REMARK  160  A    between atoms: _385  and  _387
REMARK  161  A    between atoms: _387  and  _388
REMARK  162  A    between atoms: _387  and  _390
REMARK  163  A    between atoms: _390  and  _391
REMARK  164  A    between atoms: _394  and  _396
REMARK  165  A    between atoms: _396  and  _397
REMARK  166  A    between atoms: _396  and  _399
REMARK  167  A    between atoms: _399  and  _400
REMARK  168  A    between atoms: _403  and  _405
REMARK  169  A    between atoms: _405  and  _406
REMARK  170  A    between atoms: _405  and  _408
REMARK  171  A    between atoms: _411  and  _413
REMARK  172  A    between atoms: _413  and  _414
REMARK  173  A    between atoms: _413  and  _416
REMARK  174  A    between atoms: _416  and  _417
REMARK  175  A    between atoms: _417  and  _418
REMARK  176  A    between atoms: _418  and  _419
REMARK  177  A    between atoms: _419  and  _420
REMARK  178  A    between atoms: _424  and  _426
REMARK  179  A    between atoms: _426  and  _427
REMARK  180  A    between atoms: _426  and  _429
REMARK  181  A    between atoms: _429  and  _430
REMARK  182  A    between atoms: _430  and  _431
REMARK  183  A    between atoms: _433  and  _435
REMARK  184  A    between atoms: _435  and  _436
REMARK  185  A    between atoms: _435  and  _438
REMARK  186  A    between atoms: _438  and  _439
REMARK  187  A    between atoms: _442  and  _444
REMARK  188  A    between atoms: _444  and  _445
REMARK  189  A    between atoms: _447  and  _449
REMARK  190  A    between atoms: _449  and  _450
REMARK  191  A    between atoms: _452  and  _454
REMARK  192  A    between atoms: _454  and  _455
REMARK  193  A    between atoms: _454  and  _457
REMARK  194  A    between atoms: _457  and  _458
REMARK  195  A    between atoms: _461  and  _463
REMARK  196  A    between atoms: _463  and  _464
REMARK  197  A    between atoms: _466  and  _468
REMARK  198  A    between atoms: _468  and  _469
REMARK  199  A    between atoms: _471  and  _473
REMARK  200  A    between atoms: _473  and  _474
REMARK  201  A    between atoms: _473  and  _476
REMARK  202  A    between atoms: _476  and  _477
REMARK  203  A    between atoms: _483  and  _485
REMARK  204  A    between atoms: _485  and  _486
REMARK  205  A    between atoms: _485  and  _488
REMARK  206  A    between atoms: _488  and  _489
REMARK  207  A    between atoms: _492  and  _494
REMARK  208  A    between atoms: _494  and  _495
REMARK  209  A    between atoms: _494  and  _497
REMARK  210  A    between atoms: _500  and  _502
REMARK  211  A    between atoms: _502  and  _503
REMARK  212  A    between atoms: _502  and  _505
REMARK  213  A    between atoms: _505  and  _506
REMARK  214  A    between atoms: _509  and  _511
REMARK  215  A    between atoms: _511  and  _512
REMARK  216  A    between atoms: _511  and  _514
REMARK  217  A    between atoms: _514  and  _515
REMARK  218  A    between atoms: _519  and  _520
REMARK  219  A    between atoms: _525  and  _527
REMARK  220  A    between atoms: _527  and  _528
REMARK  221  A    between atoms: _527  and  _530
REMARK  222  A    between atoms: _530  and  _531
REMARK  223  A    between atoms: _534  and  _536
REMARK  224  A    between atoms: _536  and  _537
REMARK  225  A    between atoms: _536  and  _539
REMARK  226  A    between atoms: _539  and  _540
REMARK  227  A    between atoms: _545  and  _547
REMARK  228  A    between atoms: _547  and  _548
REMARK  229  A    between atoms: _547  and  _550
REMARK  230  A    between atoms: _553  and  _555
REMARK  231  A    between atoms: _555  and  _556
REMARK  232  A    between atoms: _555  and  _558
REMARK  233  A    between atoms: _558  and  _559
REMARK  234  A    between atoms: _562  and  _564
REMARK  235  A    between atoms: _564  and  _565
REMARK  236  A    between atoms: _567  and  _569
REMARK  237  A    between atoms: _569  and  _570
REMARK  238  A    between atoms: _569  and  _572
REMARK  239  A    between atoms: _572  and  _573
REMARK  240  A    between atoms: _573  and  _574
REMARK  241  A    between atoms: _574  and  _575
REMARK                            x       y       z     vdW  Elec       q    Type
REMARK                         _______ _______ _______ _____ _____    ______ ____
ROOT
ATOM      1  O   HOH     1       6.713  34.531  10.692  0.00  0.00    +0.000 OA
ENDROOT
TORSDOF 0
REMARK  Name = ../refined-set-2016/4a4q/4a4q_pocket.pdb
REMARK  241 active torsions:
REMARK  status: ('A' for Active; 'I' for Inactive)
REMARK    1  A    between atoms: _1  and  _3
REMARK    2  A    between atoms: _3  and  _4
REMARK    3  A    between atoms: _3  and  _6
REMARK    4  A    between atoms: _6  and  _7
REMARK    5  A    between atoms: _7  and  _8
REMARK    6  A    between atoms: _8  and  _9
REMARK    7  A    between atoms: _18  and  _20
REMARK    8  A    between atoms: _20  and  _21
REMARK    9  A    between atoms: _20  and  _23
REMARK   10  A    between atoms: _23  and  _24
REMARK   11  A    between atoms: _27  and  _29
REMARK   12  A    between atoms: _29  and  _30
REMARK   13  A    between atoms: _29  and  _32
REMARK   14  A    between atoms: _32  and  _33
REMARK   15  A    between atoms: _36  and  _38
REMARK   16  A    between atoms: _38  and  _39
REMARK   17  A    between atoms: _38  and  _41
REMARK   18  A    between atoms: _41  and  _42
REMARK   19  A    between atoms: _45  and  _47
REMARK   20  A    between atoms: _47  and  _48
REMARK   21  A    between atoms: _47  and  _50
REMARK   22  A    between atoms: _50  and  _51
REMARK   23  A    between atoms: _54  and  _56
REMARK   24  A    between atoms: _56  and  _57
REMARK   25  A    between atoms: _59  and  _61
REMARK   26  A    between atoms: _61  and  _62
REMARK   27  A    between atoms: _65  and  _67
REMARK   28  A    between atoms: _67  and  _68
REMARK   29  A    between atoms: _67  and  _70
REMARK   30  A    between atoms: _70  and  _71
REMARK   31  A    between atoms: _74  and  _76
REMARK   32  A    between atoms: _76  and  _77
REMARK   33  A    between atoms: _76  and  _79
REMARK   34  A    between atoms: _79  and  _80
REMARK   35  A    between atoms: _83  and  _85
REMARK   36  A    between atoms: _85  and  _86
REMARK   37  A    between atoms: _85  and  _88
REMARK   38  A    between atoms: _88  and  _89
REMARK   39  A    between atoms: _92  and  _94
REMARK   40  A    between atoms: _94  and  _95
REMARK   41  A    between atoms: _94  and  _97
REMARK   42  A    between atoms: _100  and  _102
REMARK   43  A    between atoms: _102  and  _103
REMARK   44  A    between atoms: _102  and  _105
REMARK   45  A    between atoms: _105  and  _106
REMARK   46  A    between atoms: _109  and  _111
REMARK   47  A    between atoms: _111  and  _112
REMARK   48  A    between atoms: _111  and  _114
REMARK   49  A    between atoms: _114  and  _115
REMARK   50  A    between atoms: _115  and  _116
REMARK   51  A    between atoms: _119  and  _121
REMARK   52  A    between atoms: _121  and  _122
REMARK   53  A    between atoms: _121  and  _124
REMARK   54  A    between atoms: _124  and  _125
REMARK   55  A    between atoms: _125  and  _126
REMARK   56  A    between atoms: _126  and  _127
REMARK   57  A    between atoms: _127  and  _128
REMARK   58  A    between atoms: _132  and  _134
REMARK   59  A    between atoms: _134  and  _135
REMARK   60  A    between atoms: _134  and  _137
REMARK   61  A    between atoms: _137  and  _138
REMARK   62  A    between atoms: _138  and  _139
REMARK   63  A    between atoms: _141  and  _143
REMARK   64  A    between atoms: _143  and  _144
REMARK   65  A    between atoms: _143  and  _146
REMARK   66  A    between atoms: _146  and  _147
REMARK   67  A    between atoms: _150  and  _152
REMARK   68  A    between atoms: _152  and  _153
REMARK   69  A    between atoms: _155  and  _157
REMARK   70  A    between atoms: _157  and  _158
REMARK   71  A    between atoms: _160  and  _162
REMARK   72  A    between atoms: _162  and  _163
REMARK   73  A    between atoms: _162  and  _165
REMARK   74  A    between atoms: _165  and  _166
REMARK   75  A    between atoms: _169  and  _171
REMARK   76  A    between atoms: _171  and  _172
REMARK   77  A    between atoms: _174  and  _176
REMARK   78  A    between atoms: _176  and  _177
REMARK   79  A    between atoms: _179  and  _181
REMARK   80  A    between atoms: _181  and  _182
REMARK   81  A    between atoms: _181  and  _184
REMARK   82  A    between atoms: _184  and  _185
REMARK   83  A    between atoms: _191  and  _193
REMARK   84  A    between atoms: _193  and  _194
REMARK   85  A    between atoms: _193  and  _196
REMARK   86  A    between atoms: _196  and  _197
REMARK   87  A    between atoms: _200  and  _202
REMARK   88  A    between atoms: _202  and  _203
REMARK   89  A    between atoms: _202  and  _205
REMARK   90  A    between atoms: _208  and  _210
REMARK   91  A    between atoms: _210  and  _211
REMARK   92  A    between atoms: _210  and  _213
REMARK   93  A    between atoms: _213  and  _214
REMARK   94  A    between atoms: _217  and  _219
REMARK   95  A    between atoms: _219  and  _220
REMARK   96  A    between atoms: _219  and  _222
REMARK   97  A    between atoms: _222  and  _223
REMARK   98  A    between atoms: _227  and  _228
REMARK   99  A    between atoms: _233  and  _235
REMARK  100  A    between atoms: _235  and  _236
REMARK  101  A    between atoms: _235  and  _238
REMARK  102  A    between atoms: _238  and  _239
REMARK  103  A    between atoms: _242  and  _244
REMARK  104  A    between atoms: _244  and  _245
REMARK  105  A    between atoms: _244  and  _247
REMARK  106  A    between atoms: _247  and  _248
REMARK  107  A    between atoms: _253  and  _255
REMARK  108  A    between atoms: _255  and  _256
REMARK  109  A    between atoms: _255  and  _258
REMARK  110  A    between atoms: _261  and  _263
REMARK  111  A    between atoms: _263  and  _264
REMARK  112  A    between atoms: _263  and  _266
REMARK  113  A    between atoms: _266  and  _267
REMARK  114  A    between atoms: _270  and  _272
REMARK  115  A    between atoms: _272  and  _273
REMARK  116  A    between atoms: _275  and  _277
REMARK  117  A    between atoms: _277  and  _278
REMARK  118  A    between atoms: _277  and  _280
REMARK  119  A    between atoms: _280  and  _281
REMARK  120  A    between atoms: _281  and  _282
REMARK  121  A    between atoms: _282  and  _283
REMARK  122  A    between atoms: _292  and  _294
REMARK  123  A    between atoms: _294  and  _295
REMARK  124  A    between atoms: _294  and  _297
REMARK  125  A    between atoms: _297  and  _298
REMARK  126  A    between atoms: _303  and  _305
REMARK  127  A    between atoms: _305  and  _306
REMARK  128  A    between atoms: _305  and  _308
REMARK  129  A    between atoms: _308  and  _309
REMARK  130  A    between atoms: _309  and  _310
REMARK  131  A    between atoms: _310  and  _311
REMARK  132  A    between atoms: _320  and  _322
REMARK  133  A    between atoms: _322  and  _323
REMARK  134  A    between atoms: _322  and  _325
REMARK  135  A    between atoms: _325  and  _326
REMARK  136  A    between atoms: _329  and  _331
REMARK  137  A    between atoms: _331  and  _332
REMARK  138  A    between atoms: _331  and  _334
REMARK  139  A    between atoms: _334  and  _335
REMARK  140  A    between atoms: _338  and  _340
REMARK  141  A    between atoms: _340  and  _341
REMARK  142  A    between atoms: _340  and  _343
REMARK  143  A    between atoms: _343  and  _344
REMARK  144  A    between atoms: _347  and  _349
REMARK  145  A    between atoms: _349  and  _350
REMARK  146  A    between atoms: _349  and  _352
REMARK  147  A    between atoms: _352  and  _353
REMARK  148  A    between atoms: _356  and  _358
REMARK  149  A    between atoms: _358  and  _359
REMARK  150  A    between atoms: _358  and  _361
REMARK  151  A    between atoms: _361  and  _362
REMARK  152  A    between atoms: _365  and  _367
REMARK  153  A    between atoms: _367  and  _368
REMARK  154  A    between atoms: _370  and  _372
REMARK  155  A    between atoms: _372  and  _373
REMARK  156  A    between atoms: _376  and  _378
REMARK  157  A    between atoms: _378  and  _379
REMARK  158  A    between atoms: _378  and  _381
REMARK  159  A    between atoms: _381  and  _382
REMARK  160  A    between atoms: _385  and  _387
REMARK  161  A    between atoms: _387  and  _388
REMARK  162  A    between atoms: _387  and  _390
REMARK  163  A    between atoms: _390  and  _391
REMARK  164  A    between atoms: _394  and  _396
REMARK  165  A    between atoms: _396  and  _397
REMARK  166  A    between atoms: _396  and  _399
REMARK  167  A    between atoms: _399  and  _400
REMARK  168  A    between atoms: _403  and  _405
REMARK  169  A    between atoms: _405  and  _406
REMARK  170  A    between atoms: _405  and  _408
REMARK  171  A    between atoms: _411  and  _413
REMARK  172  A    between atoms: _413  and  _414
REMARK  173  A    between atoms: _413  and  _416
REMARK  174  A    between atoms: _416  and  _417
REMARK  175  A    between atoms: _417  and  _418
REMARK  176  A    between atoms: _418  and  _419
REMARK  177  A    between atoms: _419  and  _420
REMARK  178  A    between atoms: _424  and  _426
REMARK  179  A    between atoms: _426  and  _427
REMARK  180  A    between atoms: _426  and  _429
REMARK  181  A    between atoms: _429  and  _430
REMARK  182  A    between atoms: _430  and  _431
REMARK  183  A    between atoms: _433  and  _435
REMARK  184  A    between atoms: _435  and  _436
REMARK  185  A    between atoms: _435  and  _438
REMARK  186  A    between atoms: _438  and  _439
REMARK  187  A    between atoms: _442  and  _444
REMARK  188  A    between atoms: _444  and  _445
REMARK  189  A    between atoms: _447  and  _449
REMARK  190  A    between atoms: _449  and  _450
REMARK  191  A    between atoms: _452  and  _454
REMARK  192  A    between atoms: _454  and  _455
REMARK  193  A    between atoms: _454  and  _457
REMARK  194  A    between atoms: _457  and  _458
REMARK  195  A    between atoms: _461  and  _463
REMARK  196  A    between atoms: _463  and  _464
REMARK  197  A    between atoms: _466  and  _468
REMARK  198  A    between atoms: _468  and  _469
REMARK  199  A    between atoms: _471  and  _473
REMARK  200  A    between atoms: _473  and  _474
REMARK  201  A    between atoms: _473  and  _476
REMARK  202  A    between atoms: _476  and  _477
REMARK  203  A    between atoms: _483  and  _485
REMARK  204  A    between atoms: _485  and  _486
REMARK  205  A    between atoms: _485  and  _488
REMARK  206  A    between atoms: _488  and  _489
REMARK  207  A    between atoms: _492  and  _494
REMARK  208  A    between atoms: _494  and  _495
REMARK  209  A    between atoms: _494  and  _497
REMARK  210  A    between atoms: _500  and  _502
REMARK  211  A    between atoms: _502  and  _503
REMARK  212  A    between atoms: _502  and  _505
REMARK  213  A    between atoms: _505  and  _506
REMARK  214  A    between atoms: _509  and  _511
REMARK  215  A    between atoms: _511  and  _512
REMARK  216  A    between atoms: _511  and  _514
REMARK  217  A    between atoms: _514  and  _515
REMARK  218  A    between atoms: _519  and  _520
REMARK  219  A    between atoms: _525  and  _527
REMARK  220  A    between atoms: _527  and  _528
REMARK  221  A    between atoms: _527  and  _530
REMARK  222  A    between atoms: _530  and  _531
REMARK  223  A    between atoms: _534  and  _536
REMARK  224  A    between atoms: _536  and  _537
REMARK  225  A    between atoms: _536  and  _539
REMARK  226  A    between atoms: _539  and  _540
REMARK  227  A    between atoms: _545  and  _547
REMARK  228  A    between atoms: _547  and  _548
REMARK  229  A    between atoms: _547  and  _550
REMARK  230  A    between atoms: _553  and  _555
REMARK  231  A    between atoms: _555  and  _556
REMARK  232  A    between atoms: _555  and  _558
REMARK  233  A    between atoms: _558  and  _559
REMARK  234  A    between atoms: _562  and  _564
REMARK  235  A    between atoms: _564  and  _565
REMARK  236  A    between atoms: _567  and  _569
REMARK  237  A    between atoms: _569  and  _570
REMARK  238  A    between atoms: _569  and  _572
REMARK  239  A    between atoms: _572  and  _573
REMARK  240  A    between atoms: _573  and  _574
REMARK  241  A    between atoms: _574  and  _575
REMARK                            x       y       z     vdW  Elec       q    Type
REMARK                         _______ _______ _______ _____ _____    ______ ____
ROOT
ATOM      1  O   HOH     1       5.169  28.896   7.497  0.00  0.00    +0.000 OA
ENDROOT
TORSDOF 0
REMARK  Name = ../refined-set-2016/4a4q/4a4q_pocket.pdb
REMARK  241 active torsions:
REMARK  status: ('A' for Active; 'I' for Inactive)
REMARK    1  A    between atoms: _1  and  _3
REMARK    2  A    between atoms: _3  and  _4
REMARK    3  A    between atoms: _3  and  _6
REMARK    4  A    between atoms: _6  and  _7
REMARK    5  A    between atoms: _7  and  _8
REMARK    6  A    between atoms: _8  and  _9
REMARK    7  A    between atoms: _18  and  _20
REMARK    8  A    between atoms: _20  and  _21
REMARK    9  A    between atoms: _20  and  _23
REMARK   10  A    between atoms: _23  and  _24
REMARK   11  A    between atoms: _27  and  _29
REMARK   12  A    between atoms: _29  and  _30
REMARK   13  A    between atoms: _29  and  _32
REMARK   14  A    between atoms: _32  and  _33
REMARK   15  A    between atoms: _36  and  _38
REMARK   16  A    between atoms: _38  and  _39
REMARK   17  A    between atoms: _38  and  _41
REMARK   18  A    between atoms: _41  and  _42
REMARK   19  A    between atoms: _45  and  _47
REMARK   20  A    between atoms: _47  and  _48
REMARK   21  A    between atoms: _47  and  _50
REMARK   22  A    between atoms: _50  and  _51
REMARK   23  A    between atoms: _54  and  _56
REMARK   24  A    between atoms: _56  and  _57
REMARK   25  A    between atoms: _59  and  _61
REMARK   26  A    between atoms: _61  and  _62
REMARK   27  A    between atoms: _65  and  _67
REMARK   28  A    between atoms: _67  and  _68
REMARK   29  A    between atoms: _67  and  _70
REMARK   30  A    between atoms: _70  and  _71
REMARK   31  A    between atoms: _74  and  _76
REMARK   32  A    between atoms: _76  and  _77
REMARK   33  A    between atoms: _76  and  _79
REMARK   34  A    between atoms: _79  and  _80
REMARK   35  A    between atoms: _83  and  _85
REMARK   36  A    between atoms: _85  and  _86
REMARK   37  A    between atoms: _85  and  _88
REMARK   38  A    between atoms: _88  and  _89
REMARK   39  A    between atoms: _92  and  _94
REMARK   40  A    between atoms: _94  and  _95
REMARK   41  A    between atoms: _94  and  _97
REMARK   42  A    between atoms: _100  and  _102
REMARK   43  A    between atoms: _102  and  _103
REMARK   44  A    between atoms: _102  and  _105
REMARK   45  A    between atoms: _105  and  _106
REMARK   46  A    between atoms: _109  and  _111
REMARK   47  A    between atoms: _111  and  _112
REMARK   48  A    between atoms: _111  and  _114
REMARK   49  A    between atoms: _114  and  _115
REMARK   50  A    between atoms: _115  and  _116
REMARK   51  A    between atoms: _119  and  _121
REMARK   52  A    between atoms: _121  and  _122
REMARK   53  A    between atoms: _121  and  _124
REMARK   54  A    between atoms: _124  and  _125
REMARK   55  A    between atoms: _125  and  _126
REMARK   56  A    between atoms: _126  and  _127
REMARK   57  A    between atoms: _127  and  _128
REMARK   58  A    between atoms: _132  and  _134
REMARK   59  A    between atoms: _134  and  _135
REMARK   60  A    between atoms: _134  and  _137
REMARK   61  A    between atoms: _137  and  _138
REMARK   62  A    between atoms: _138  and  _139
REMARK   63  A    between atoms: _141  and  _143
REMARK   64  A    between atoms: _143  and  _144
REMARK   65  A    between atoms: _143  and  _146
REMARK   66  A    between atoms: _146  and  _147
REMARK   67  A    between atoms: _150  and  _152
REMARK   68  A    between atoms: _152  and  _153
REMARK   69  A    between atoms: _155  and  _157
REMARK   70  A    between atoms: _157  and  _158
REMARK   71  A    between atoms: _160  and  _162
REMARK   72  A    between atoms: _162  and  _163
REMARK   73  A    between atoms: _162  and  _165
REMARK   74  A    between atoms: _165  and  _166
REMARK   75  A    between atoms: _169  and  _171
REMARK   76  A    between atoms: _171  and  _172
REMARK   77  A    between atoms: _174  and  _176
REMARK   78  A    between atoms: _176  and  _177
REMARK   79  A    between atoms: _179  and  _181
REMARK   80  A    between atoms: _181  and  _182
REMARK   81  A    between atoms: _181  and  _184
REMARK   82  A    between atoms: _184  and  _185
REMARK   83  A    between atoms: _191  and  _193
REMARK   84  A    between atoms: _193  and  _194
REMARK   85  A    between atoms: _193  and  _196
REMARK   86  A    between atoms: _196  and  _197
REMARK   87  A    between atoms: _200  and  _202
REMARK   88  A    between atoms: _202  and  _203
REMARK   89  A    between atoms: _202  and  _205
REMARK   90  A    between atoms: _208  and  _210
REMARK   91  A    between atoms: _210  and  _211
REMARK   92  A    between atoms: _210  and  _213
REMARK   93  A    between atoms: _213  and  _214
REMARK   94  A    between atoms: _217  and  _219
REMARK   95  A    between atoms: _219  and  _220
REMARK   96  A    between atoms: _219  and  _222
REMARK   97  A    between atoms: _222  and  _223
REMARK   98  A    between atoms: _227  and  _228
REMARK   99  A    between atoms: _233  and  _235
REMARK  100  A    between atoms: _235  and  _236
REMARK  101  A    between atoms: _235  and  _238
REMARK  102  A    between atoms: _238  and  _239
REMARK  103  A    between atoms: _242  and  _244
REMARK  104  A    between atoms: _244  and  _245
REMARK  105  A    between atoms: _244  and  _247
REMARK  106  A    between atoms: _247  and  _248
REMARK  107  A    between atoms: _253  and  _255
REMARK  108  A    between atoms: _255  and  _256
REMARK  109  A    between atoms: _255  and  _258
REMARK  110  A    between atoms: _261  and  _263
REMARK  111  A    between atoms: _263  and  _264
REMARK  112  A    between atoms: _263  and  _266
REMARK  113  A    between atoms: _266  and  _267
REMARK  114  A    between atoms: _270  and  _272
REMARK  115  A    between atoms: _272  and  _273
REMARK  116  A    between atoms: _275  and  _277
REMARK  117  A    between atoms: _277  and  _278
REMARK  118  A    between atoms: _277  and  _280
REMARK  119  A    between atoms: _280  and  _281
REMARK  120  A    between atoms: _281  and  _282
REMARK  121  A    between atoms: _282  and  _283
REMARK  122  A    between atoms: _292  and  _294
REMARK  123  A    between atoms: _294  and  _295
REMARK  124  A    between atoms: _294  and  _297
REMARK  125  A    between atoms: _297  and  _298
REMARK  126  A    between atoms: _303  and  _305
REMARK  127  A    between atoms: _305  and  _306
REMARK  128  A    between atoms: _305  and  _308
REMARK  129  A    between atoms: _308  and  _309
REMARK  130  A    between atoms: _309  and  _310
REMARK  131  A    between atoms: _310  and  _311
REMARK  132  A    between atoms: _320  and  _322
REMARK  133  A    between atoms: _322  and  _323
REMARK  134  A    between atoms: _322  and  _325
REMARK  135  A    between atoms: _325  and  _326
REMARK  136  A    between atoms: _329  and  _331
REMARK  137  A    between atoms: _331  and  _332
REMARK  138  A    between atoms: _331  and  _334
REMARK  139  A    between atoms: _334  and  _335
REMARK  140  A    between atoms: _338  and  _340
REMARK  141  A    between atoms: _340  and  _341
REMARK  142  A    between atoms: _340  and  _343
REMARK  143  A    between atoms: _343  and  _344
REMARK  144  A    between atoms: _347  and  _349
REMARK  145  A    between atoms: _349  and  _350
REMARK  146  A    between atoms: _349  and  _352
REMARK  147  A    between atoms: _352  and  _353
REMARK  148  A    between atoms: _356  and  _358
REMARK  149  A    between atoms: _358  and  _359
REMARK  150  A    between atoms: _358  and  _361
REMARK  151  A    between atoms: _361  and  _362
REMARK  152  A    between atoms: _365  and  _367
REMARK  153  A    between atoms: _367  and  _368
REMARK  154  A    between atoms: _370  and  _372
REMARK  155  A    between atoms: _372  and  _373
REMARK  156  A    between atoms: _376  and  _378
REMARK  157  A    between atoms: _378  and  _379
REMARK  158  A    between atoms: _378  and  _381
REMARK  159  A    between atoms: _381  and  _382
REMARK  160  A    between atoms: _385  and  _387
REMARK  161  A    between atoms: _387  and  _388
REMARK  162  A    between atoms: _387  and  _390
REMARK  163  A    between atoms: _390  and  _391
REMARK  164  A    between atoms: _394  and  _396
REMARK  165  A    between atoms: _396  and  _397
REMARK  166  A    between atoms: _396  and  _399
REMARK  167  A    between atoms: _399  and  _400
REMARK  168  A    between atoms: _403  and  _405
REMARK  169  A    between atoms: _405  and  _406
REMARK  170  A    between atoms: _405  and  _408
REMARK  171  A    between atoms: _411  and  _413
REMARK  172  A    between atoms: _413  and  _414
REMARK  173  A    between atoms: _413  and  _416
REMARK  174  A    between atoms: _416  and  _417
REMARK  175  A    between atoms: _417  and  _418
REMARK  176  A    between atoms: _418  and  _419
REMARK  177  A    between atoms: _419  and  _420
REMARK  178  A    between atoms: _424  and  _426
REMARK  179  A    between atoms: _426  and  _427
REMARK  180  A    between atoms: _426  and  _429
REMARK  181  A    between atoms: _429  and  _430
REMARK  182  A    between atoms: _430  and  _431
REMARK  183  A    between atoms: _433  and  _435
REMARK  184  A    between atoms: _435  and  _436
REMARK  185  A    between atoms: _435  and  _438
REMARK  186  A    between atoms: _438  and  _439
REMARK  187  A    between atoms: _442  and  _444
REMARK  188  A    between atoms: _444  and  _445
REMARK  189  A    between atoms: _447  and  _449
REMARK  190  A    between atoms: _449  and  _450
REMARK  191  A    between atoms: _452  and  _454
REMARK  192  A    between atoms: _454  and  _455
REMARK  193  A    between atoms: _454  and  _457
REMARK  194  A    between atoms: _457  and  _458
REMARK  195  A    between atoms: _461  and  _463
REMARK  196  A    between atoms: _463  and  _464
REMARK  197  A    between atoms: _466  and  _468
REMARK  198  A    between atoms: _468  and  _469
REMARK  199  A    between atoms: _471  and  _473
REMARK  200  A    between atoms: _473  and  _474
REMARK  201  A    between atoms: _473  and  _476
REMARK  202  A    between atoms: _476  and  _477
REMARK  203  A    between atoms: _483  and  _485
REMARK  204  A    between atoms: _485  and  _486
REMARK  205  A    between atoms: _485  and  _488
REMARK  206  A    between atoms: _488  and  _489
REMARK  207  A    between atoms: _492  and  _494
REMARK  208  A    between atoms: _494  and  _495
REMARK  209  A    between atoms: _494  and  _497
REMARK  210  A    between atoms: _500  and  _502
REMARK  211  A    between atoms: _502  and  _503
REMARK  212  A    between atoms: _502  and  _505
REMARK  213  A    between atoms: _505  and  _506
REMARK  214  A    between atoms: _509  and  _511
REMARK  215  A    between atoms: _511  and  _512
REMARK  216  A    between atoms: _511  and  _514
REMARK  217  A    between atoms: _514  and  _515
REMARK  218  A    between atoms: _519  and  _520
REMARK  219  A    between atoms: _525  and  _527
REMARK  220  A    between atoms: _527  and  _528
REMARK  221  A    between atoms: _527  and  _530
REMARK  222  A    between atoms: _530  and  _531
REMARK  223  A    between atoms: _534  and  _536
REMARK  224  A    between atoms: _536  and  _537
REMARK  225  A    between atoms: _536  and  _539
REMARK  226  A    between atoms: _539  and  _540
REMARK  227  A    between atoms: _545  and  _547
REMARK  228  A    between atoms: _547  and  _548
REMARK  229  A    between atoms: _547  and  _550
REMARK  230  A    between atoms: _553  and  _555
REMARK  231  A    between atoms: _555  and  _556
REMARK  232  A    between atoms: _555  and  _558
REMARK  233  A    between atoms: _558  and  _559
REMARK  234  A    between atoms: _562  and  _564
REMARK  235  A    between atoms: _564  and  _565
REMARK  236  A    between atoms: _567  and  _569
REMARK  237  A    between atoms: _569  and  _570
REMARK  238  A    between atoms: _569  and  _572
REMARK  239  A    between atoms: _572  and  _573
REMARK  240  A    between atoms: _573  and  _574
REMARK  241  A    between atoms: _574  and  _575
REMARK                            x       y       z     vdW  Elec       q    Type
REMARK                         _______ _______ _______ _____ _____    ______ ____
ROOT
ATOM      1  O   HOH     1       8.528  33.607  12.519  0.00  0.00    +0.000 OA
ENDROOT
TORSDOF 0
REMARK  Name = ../refined-set-2016/4a4q/4a4q_pocket.pdb
REMARK  241 active torsions:
REMARK  status: ('A' for Active; 'I' for Inactive)
REMARK    1  A    between atoms: _1  and  _3
REMARK    2  A    between atoms: _3  and  _4
REMARK    3  A    between atoms: _3  and  _6
REMARK    4  A    between atoms: _6  and  _7
REMARK    5  A    between atoms: _7  and  _8
REMARK    6  A    between atoms: _8  and  _9
REMARK    7  A    between atoms: _18  and  _20
REMARK    8  A    between atoms: _20  and  _21
REMARK    9  A    between atoms: _20  and  _23
REMARK   10  A    between atoms: _23  and  _24
REMARK   11  A    between atoms: _27  and  _29
REMARK   12  A    between atoms: _29  and  _30
REMARK   13  A    between atoms: _29  and  _32
REMARK   14  A    between atoms: _32  and  _33
REMARK   15  A    between atoms: _36  and  _38
REMARK   16  A    between atoms: _38  and  _39
REMARK   17  A    between atoms: _38  and  _41
REMARK   18  A    between atoms: _41  and  _42
REMARK   19  A    between atoms: _45  and  _47
REMARK   20  A    between atoms: _47  and  _48
REMARK   21  A    between atoms: _47  and  _50
REMARK   22  A    between atoms: _50  and  _51
REMARK   23  A    between atoms: _54  and  _56
REMARK   24  A    between atoms: _56  and  _57
REMARK   25  A    between atoms: _59  and  _61
REMARK   26  A    between atoms: _61  and  _62
REMARK   27  A    between atoms: _65  and  _67
REMARK   28  A    between atoms: _67  and  _68
REMARK   29  A    between atoms: _67  and  _70
REMARK   30  A    between atoms: _70  and  _71
REMARK   31  A    between atoms: _74  and  _76
REMARK   32  A    between atoms: _76  and  _77
REMARK   33  A    between atoms: _76  and  _79
REMARK   34  A    between atoms: _79  and  _80
REMARK   35  A    between atoms: _83  and  _85
REMARK   36  A    between atoms: _85  and  _86
REMARK   37  A    between atoms: _85  and  _88
REMARK   38  A    between atoms: _88  and  _89
REMARK   39  A    between atoms: _92  and  _94
REMARK   40  A    between atoms: _94  and  _95
REMARK   41  A    between atoms: _94  and  _97
REMARK   42  A    between atoms: _100  and  _102
REMARK   43  A    between atoms: _102  and  _103
REMARK   44  A    between atoms: _102  and  _105
REMARK   45  A    between atoms: _105  and  _106
REMARK   46  A    between atoms: _109  and  _111
REMARK   47  A    between atoms: _111  and  _112
REMARK   48  A    between atoms: _111  and  _114
REMARK   49  A    between atoms: _114  and  _115
REMARK   50  A    between atoms: _115  and  _116
REMARK   51  A    between atoms: _119  and  _121
REMARK   52  A    between atoms: _121  and  _122
REMARK   53  A    between atoms: _121  and  _124
REMARK   54  A    between atoms: _124  and  _125
REMARK   55  A    between atoms: _125  and  _126
REMARK   56  A    between atoms: _126  and  _127
REMARK   57  A    between atoms: _127  and  _128
REMARK   58  A    between atoms: _132  and  _134
REMARK   59  A    between atoms: _134  and  _135
REMARK   60  A    between atoms: _134  and  _137
REMARK   61  A    between atoms: _137  and  _138
REMARK   62  A    between atoms: _138  and  _139
REMARK   63  A    between atoms: _141  and  _143
REMARK   64  A    between atoms: _143  and  _144
REMARK   65  A    between atoms: _143  and  _146
REMARK   66  A    between atoms: _146  and  _147
REMARK   67  A    between atoms: _150  and  _152
REMARK   68  A    between atoms: _152  and  _153
REMARK   69  A    between atoms: _155  and  _157
REMARK   70  A    between atoms: _157  and  _158
REMARK   71  A    between atoms: _160  and  _162
REMARK   72  A    between atoms: _162  and  _163
REMARK   73  A    between atoms: _162  and  _165
REMARK   74  A    between atoms: _165  and  _166
REMARK   75  A    between atoms: _169  and  _171
REMARK   76  A    between atoms: _171  and  _172
REMARK   77  A    between atoms: _174  and  _176
REMARK   78  A    between atoms: _176  and  _177
REMARK   79  A    between atoms: _179  and  _181
REMARK   80  A    between atoms: _181  and  _182
REMARK   81  A    between atoms: _181  and  _184
REMARK   82  A    between atoms: _184  and  _185
REMARK   83  A    between atoms: _191  and  _193
REMARK   84  A    between atoms: _193  and  _194
REMARK   85  A    between atoms: _193  and  _196
REMARK   86  A    between atoms: _196  and  _197
REMARK   87  A    between atoms: _200  and  _202
REMARK   88  A    between atoms: _202  and  _203
REMARK   89  A    between atoms: _202  and  _205
REMARK   90  A    between atoms: _208  and  _210
REMARK   91  A    between atoms: _210  and  _211
REMARK   92  A    between atoms: _210  and  _213
REMARK   93  A    between atoms: _213  and  _214
REMARK   94  A    between atoms: _217  and  _219
REMARK   95  A    between atoms: _219  and  _220
REMARK   96  A    between atoms: _219  and  _222
REMARK   97  A    between atoms: _222  and  _223
REMARK   98  A    between atoms: _227  and  _228
REMARK   99  A    between atoms: _233  and  _235
REMARK  100  A    between atoms: _235  and  _236
REMARK  101  A    between atoms: _235  and  _238
REMARK  102  A    between atoms: _238  and  _239
REMARK  103  A    between atoms: _242  and  _244
REMARK  104  A    between atoms: _244  and  _245
REMARK  105  A    between atoms: _244  and  _247
REMARK  106  A    between atoms: _247  and  _248
REMARK  107  A    between atoms: _253  and  _255
REMARK  108  A    between atoms: _255  and  _256
REMARK  109  A    between atoms: _255  and  _258
REMARK  110  A    between atoms: _261  and  _263
REMARK  111  A    between atoms: _263  and  _264
REMARK  112  A    between atoms: _263  and  _266
REMARK  113  A    between atoms: _266  and  _267
REMARK  114  A    between atoms: _270  and  _272
REMARK  115  A    between atoms: _272  and  _273
REMARK  116  A    between atoms: _275  and  _277
REMARK  117  A    between atoms: _277  and  _278
REMARK  118  A    between atoms: _277  and  _280
REMARK  119  A    between atoms: _280  and  _281
REMARK  120  A    between atoms: _281  and  _282
REMARK  121  A    between atoms: _282  and  _283
REMARK  122  A    between atoms: _292  and  _294
REMARK  123  A    between atoms: _294  and  _295
REMARK  124  A    between atoms: _294  and  _297
REMARK  125  A    between atoms: _297  and  _298
REMARK  126  A    between atoms: _303  and  _305
REMARK  127  A    between atoms: _305  and  _306
REMARK  128  A    between atoms: _305  and  _308
REMARK  129  A    between atoms: _308  and  _309
REMARK  130  A    between atoms: _309  and  _310
REMARK  131  A    between atoms: _310  and  _311
REMARK  132  A    between atoms: _320  and  _322
REMARK  133  A    between atoms: _322  and  _323
REMARK  134  A    between atoms: _322  and  _325
REMARK  135  A    between atoms: _325  and  _326
REMARK  136  A    between atoms: _329  and  _331
REMARK  137  A    between atoms: _331  and  _332
REMARK  138  A    between atoms: _331  and  _334
REMARK  139  A    between atoms: _334  and  _335
REMARK  140  A    between atoms: _338  and  _340
REMARK  141  A    between atoms: _340  and  _341
REMARK  142  A    between atoms: _340  and  _343
REMARK  143  A    between atoms: _343  and  _344
REMARK  144  A    between atoms: _347  and  _349
REMARK  145  A    between atoms: _349  and  _350
REMARK  146  A    between atoms: _349  and  _352
REMARK  147  A    between atoms: _352  and  _353
REMARK  148  A    between atoms: _356  and  _358
REMARK  149  A    between atoms: _358  and  _359
REMARK  150  A    between atoms: _358  and  _361
REMARK  151  A    between atoms: _361  and  _362
REMARK  152  A    between atoms: _365  and  _367
REMARK  153  A    between atoms: _367  and  _368
REMARK  154  A    between atoms: _370  and  _372
REMARK  155  A    between atoms: _372  and  _373
REMARK  156  A    between atoms: _376  and  _378
REMARK  157  A    between atoms: _378  and  _379
REMARK  158  A    between atoms: _378  and  _381
REMARK  159  A    between atoms: _381  and  _382
REMARK  160  A    between atoms: _385  and  _387
REMARK  161  A    between atoms: _387  and  _388
REMARK  162  A    between atoms: _387  and  _390
REMARK  163  A    between atoms: _390  and  _391
REMARK  164  A    between atoms: _394  and  _396
REMARK  165  A    between atoms: _396  and  _397
REMARK  166  A    between atoms: _396  and  _399
REMARK  167  A    between atoms: _399  and  _400
REMARK  168  A    between atoms: _403  and  _405
REMARK  169  A    between atoms: _405  and  _406
REMARK  170  A    between atoms: _405  and  _408
REMARK  171  A    between atoms: _411  and  _413
REMARK  172  A    between atoms: _413  and  _414
REMARK  173  A    between atoms: _413  and  _416
REMARK  174  A    between atoms: _416  and  _417
REMARK  175  A    between atoms: _417  and  _418
REMARK  176  A    between atoms: _418  and  _419
REMARK  177  A    between atoms: _419  and  _420
REMARK  178  A    between atoms: _424  and  _426
REMARK  179  A    between atoms: _426  and  _427
REMARK  180  A    between atoms: _426  and  _429
REMARK  181  A    between atoms: _429  and  _430
REMARK  182  A    between atoms: _430  and  _431
REMARK  183  A    between atoms: _433  and  _435
REMARK  184  A    between atoms: _435  and  _436
REMARK  185  A    between atoms: _435  and  _438
REMARK  186  A    between atoms: _438  and  _439
REMARK  187  A    between atoms: _442  and  _444
REMARK  188  A    between atoms: _444  and  _445
REMARK  189  A    between atoms: _447  and  _449
REMARK  190  A    between atoms: _449  and  _450
REMARK  191  A    between atoms: _452  and  _454
REMARK  192  A    between atoms: _454  and  _455
REMARK  193  A    between atoms: _454  and  _457
REMARK  194  A    between atoms: _457  and  _458
REMARK  195  A    between atoms: _461  and  _463
REMARK  196  A    between atoms: _463  and  _464
REMARK  197  A    between atoms: _466  and  _468
REMARK  198  A    between atoms: _468  and  _469
REMARK  199  A    between atoms: _471  and  _473
REMARK  200  A    between atoms: _473  and  _474
REMARK  201  A    between atoms: _473  and  _476
REMARK  202  A    between atoms: _476  and  _477
REMARK  203  A    between atoms: _483  and  _485
REMARK  204  A    between atoms: _485  and  _486
REMARK  205  A    between atoms: _485  and  _488
REMARK  206  A    between atoms: _488  and  _489
REMARK  207  A    between atoms: _492  and  _494
REMARK  208  A    between atoms: _494  and  _495
REMARK  209  A    between atoms: _494  and  _497
REMARK  210  A    between atoms: _500  and  _502
REMARK  211  A    between atoms: _502  and  _503
REMARK  212  A    between atoms: _502  and  _505
REMARK  213  A    between atoms: _505  and  _506
REMARK  214  A    between atoms: _509  and  _511
REMARK  215  A    between atoms: _511  and  _512
REMARK  216  A    between atoms: _511  and  _514
REMARK  217  A    between atoms: _514  and  _515
REMARK  218  A    between atoms: _519  and  _520
REMARK  219  A    between atoms: _525  and  _527
REMARK  220  A    between atoms: _527  and  _528
REMARK  221  A    between atoms: _527  and  _530
REMARK  222  A    between atoms: _530  and  _531
REMARK  223  A    between atoms: _534  and  _536
REMARK  224  A    between atoms: _536  and  _537
REMARK  225  A    between atoms: _536  and  _539
REMARK  226  A    between atoms: _539  and  _540
REMARK  227  A    between atoms: _545  and  _547
REMARK  228  A    between atoms: _547  and  _548
REMARK  229  A    between atoms: _547  and  _550
REMARK  230  A    between atoms: _553  and  _555
REMARK  231  A    between atoms: _555  and  _556
REMARK  232  A    between atoms: _555  and  _558
REMARK  233  A    between atoms: _558  and  _559
REMARK  234  A    between atoms: _562  and  _564
REMARK  235  A    between atoms: _564  and  _565
REMARK  236  A    between atoms: _567  and  _569
REMARK  237  A    between atoms: _569  and  _570
REMARK  238  A    between atoms: _569  and  _572
REMARK  239  A    between atoms: _572  and  _573
REMARK  240  A    between atoms: _573  and  _574
REMARK  241  A    between atoms: _574  and  _575
REMARK                            x       y       z     vdW  Elec       q    Type
REMARK                         _______ _______ _______ _____ _____    ______ ____
ROOT
ATOM      1  O   HOH     1       4.090  33.783  11.936  0.00  0.00    +0.000 OA
ENDROOT
TORSDOF 0
REMARK  Name = ../refined-set-2016/4a4q/4a4q_pocket.pdb
REMARK  241 active torsions:
REMARK  status: ('A' for Active; 'I' for Inactive)
REMARK    1  A    between atoms: _1  and  _3
REMARK    2  A    between atoms: _3  and  _4
REMARK    3  A    between atoms: _3  and  _6
REMARK    4  A    between atoms: _6  and  _7
REMARK    5  A    between atoms: _7  and  _8
REMARK    6  A    between atoms: _8  and  _9
REMARK    7  A    between atoms: _18  and  _20
REMARK    8  A    between atoms: _20  and  _21
REMARK    9  A    between atoms: _20  and  _23
REMARK   10  A    between atoms: _23  and  _24
REMARK   11  A    between atoms: _27  and  _29
REMARK   12  A    between atoms: _29  and  _30
REMARK   13  A    between atoms: _29  and  _32
REMARK   14  A    between atoms: _32  and  _33
REMARK   15  A    between atoms: _36  and  _38
REMARK   16  A    between atoms: _38  and  _39
REMARK   17  A    between atoms: _38  and  _41
REMARK   18  A    between atoms: _41  and  _42
REMARK   19  A    between atoms: _45  and  _47
REMARK   20  A    between atoms: _47  and  _48
REMARK   21  A    between atoms: _47  and  _50
REMARK   22  A    between atoms: _50  and  _51
REMARK   23  A    between atoms: _54  and  _56
REMARK   24  A    between atoms: _56  and  _57
REMARK   25  A    between atoms: _59  and  _61
REMARK   26  A    between atoms: _61  and  _62
REMARK   27  A    between atoms: _65  and  _67
REMARK   28  A    between atoms: _67  and  _68
REMARK   29  A    between atoms: _67  and  _70
REMARK   30  A    between atoms: _70  and  _71
REMARK   31  A    between atoms: _74  and  _76
REMARK   32  A    between atoms: _76  and  _77
REMARK   33  A    between atoms: _76  and  _79
REMARK   34  A    between atoms: _79  and  _80
REMARK   35  A    between atoms: _83  and  _85
REMARK   36  A    between atoms: _85  and  _86
REMARK   37  A    between atoms: _85  and  _88
REMARK   38  A    between atoms: _88  and  _89
REMARK   39  A    between atoms: _92  and  _94
REMARK   40  A    between atoms: _94  and  _95
REMARK   41  A    between atoms: _94  and  _97
REMARK   42  A    between atoms: _100  and  _102
REMARK   43  A    between atoms: _102  and  _103
REMARK   44  A    between atoms: _102  and  _105
REMARK   45  A    between atoms: _105  and  _106
REMARK   46  A    between atoms: _109  and  _111
REMARK   47  A    between atoms: _111  and  _112
REMARK   48  A    between atoms: _111  and  _114
REMARK   49  A    between atoms: _114  and  _115
REMARK   50  A    between atoms: _115  and  _116
REMARK   51  A    between atoms: _119  and  _121
REMARK   52  A    between atoms: _121  and  _122
REMARK   53  A    between atoms: _121  and  _124
REMARK   54  A    between atoms: _124  and  _125
REMARK   55  A    between atoms: _125  and  _126
REMARK   56  A    between atoms: _126  and  _127
REMARK   57  A    between atoms: _127  and  _128
REMARK   58  A    between atoms: _132  and  _134
REMARK   59  A    between atoms: _134  and  _135
REMARK   60  A    between atoms: _134  and  _137
REMARK   61  A    between atoms: _137  and  _138
REMARK   62  A    between atoms: _138  and  _139
REMARK   63  A    between atoms: _141  and  _143
REMARK   64  A    between atoms: _143  and  _144
REMARK   65  A    between atoms: _143  and  _146
REMARK   66  A    between atoms: _146  and  _147
REMARK   67  A    between atoms: _150  and  _152
REMARK   68  A    between atoms: _152  and  _153
REMARK   69  A    between atoms: _155  and  _157
REMARK   70  A    between atoms: _157  and  _158
REMARK   71  A    between atoms: _160  and  _162
REMARK   72  A    between atoms: _162  and  _163
REMARK   73  A    between atoms: _162  and  _165
REMARK   74  A    between atoms: _165  and  _166
REMARK   75  A    between atoms: _169  and  _171
REMARK   76  A    between atoms: _171  and  _172
REMARK   77  A    between atoms: _174  and  _176
REMARK   78  A    between atoms: _176  and  _177
REMARK   79  A    between atoms: _179  and  _181
REMARK   80  A    between atoms: _181  and  _182
REMARK   81  A    between atoms: _181  and  _184
REMARK   82  A    between atoms: _184  and  _185
REMARK   83  A    between atoms: _191  and  _193
REMARK   84  A    between atoms: _193  and  _194
REMARK   85  A    between atoms: _193  and  _196
REMARK   86  A    between atoms: _196  and  _197
REMARK   87  A    between atoms: _200  and  _202
REMARK   88  A    between atoms: _202  and  _203
REMARK   89  A    between atoms: _202  and  _205
REMARK   90  A    between atoms: _208  and  _210
REMARK   91  A    between atoms: _210  and  _211
REMARK   92  A    between atoms: _210  and  _213
REMARK   93  A    between atoms: _213  and  _214
REMARK   94  A    between atoms: _217  and  _219
REMARK   95  A    between atoms: _219  and  _220
REMARK   96  A    between atoms: _219  and  _222
REMARK   97  A    between atoms: _222  and  _223
REMARK   98  A    between atoms: _227  and  _228
REMARK   99  A    between atoms: _233  and  _235
REMARK  100  A    between atoms: _235  and  _236
REMARK  101  A    between atoms: _235  and  _238
REMARK  102  A    between atoms: _238  and  _239
REMARK  103  A    between atoms: _242  and  _244
REMARK  104  A    between atoms: _244  and  _245
REMARK  105  A    between atoms: _244  and  _247
REMARK  106  A    between atoms: _247  and  _248
REMARK  107  A    between atoms: _253  and  _255
REMARK  108  A    between atoms: _255  and  _256
REMARK  109  A    between atoms: _255  and  _258
REMARK  110  A    between atoms: _261  and  _263
REMARK  111  A    between atoms: _263  and  _264
REMARK  112  A    between atoms: _263  and  _266
REMARK  113  A    between atoms: _266  and  _267
REMARK  114  A    between atoms: _270  and  _272
REMARK  115  A    between atoms: _272  and  _273
REMARK  116  A    between atoms: _275  and  _277
REMARK  117  A    between atoms: _277  and  _278
REMARK  118  A    between atoms: _277  and  _280
REMARK  119  A    between atoms: _280  and  _281
REMARK  120  A    between atoms: _281  and  _282
REMARK  121  A    between atoms: _282  and  _283
REMARK  122  A    between atoms: _292  and  _294
REMARK  123  A    between atoms: _294  and  _295
REMARK  124  A    between atoms: _294  and  _297
REMARK  125  A    between atoms: _297  and  _298
REMARK  126  A    between atoms: _303  and  _305
REMARK  127  A    between atoms: _305  and  _306
REMARK  128  A    between atoms: _305  and  _308
REMARK  129  A    between atoms: _308  and  _309
REMARK  130  A    between atoms: _309  and  _310
REMARK  131  A    between atoms: _310  and  _311
REMARK  132  A    between atoms: _320  and  _322
REMARK  133  A    between atoms: _322  and  _323
REMARK  134  A    between atoms: _322  and  _325
REMARK  135  A    between atoms: _325  and  _326
REMARK  136  A    between atoms: _329  and  _331
REMARK  137  A    between atoms: _331  and  _332
REMARK  138  A    between atoms: _331  and  _334
REMARK  139  A    between atoms: _334  and  _335
REMARK  140  A    between atoms: _338  and  _340
REMARK  141  A    between atoms: _340  and  _341
REMARK  142  A    between atoms: _340  and  _343
REMARK  143  A    between atoms: _343  and  _344
REMARK  144  A    between atoms: _347  and  _349
REMARK  145  A    between atoms: _349  and  _350
REMARK  146  A    between atoms: _349  and  _352
REMARK  147  A    between atoms: _352  and  _353
REMARK  148  A    between atoms: _356  and  _358
REMARK  149  A    between atoms: _358  and  _359
REMARK  150  A    between atoms: _358  and  _361
REMARK  151  A    between atoms: _361  and  _362
REMARK  152  A    between atoms: _365  and  _367
REMARK  153  A    between atoms: _367  and  _368
REMARK  154  A    between atoms: _370  and  _372
REMARK  155  A    between atoms: _372  and  _373
REMARK  156  A    between atoms: _376  and  _378
REMARK  157  A    between atoms: _378  and  _379
REMARK  158  A    between atoms: _378  and  _381
REMARK  159  A    between atoms: _381  and  _382
REMARK  160  A    between atoms: _385  and  _387
REMARK  161  A    between atoms: _387  and  _388
REMARK  162  A    between atoms: _387  and  _390
REMARK  163  A    between atoms: _390  and  _391
REMARK  164  A    between atoms: _394  and  _396
REMARK  165  A    between atoms: _396  and  _397
REMARK  166  A    between atoms: _396  and  _399
REMARK  167  A    between atoms: _399  and  _400
REMARK  168  A    between atoms: _403  and  _405
REMARK  169  A    between atoms: _405  and  _406
REMARK  170  A    between atoms: _405  and  _408
REMARK  171  A    between atoms: _411  and  _413
REMARK  172  A    between atoms: _413  and  _414
REMARK  173  A    between atoms: _413  and  _416
REMARK  174  A    between atoms: _416  and  _417
REMARK  175  A    between atoms: _417  and  _418
REMARK  176  A    between atoms: _418  and  _419
REMARK  177  A    between atoms: _419  and  _420
REMARK  178  A    between atoms: _424  and  _426
REMARK  179  A    between atoms: _426  and  _427
REMARK  180  A    between atoms: _426  and  _429
REMARK  181  A    between atoms: _429  and  _430
REMARK  182  A    between atoms: _430  and  _431
REMARK  183  A    between atoms: _433  and  _435
REMARK  184  A    between atoms: _435  and  _436
REMARK  185  A    between atoms: _435  and  _438
REMARK  186  A    between atoms: _438  and  _439
REMARK  187  A    between atoms: _442  and  _444
REMARK  188  A    between atoms: _444  and  _445
REMARK  189  A    between atoms: _447  and  _449
REMARK  190  A    between atoms: _449  and  _450
REMARK  191  A    between atoms: _452  and  _454
REMARK  192  A    between atoms: _454  and  _455
REMARK  193  A    between atoms: _454  and  _457
REMARK  194  A    between atoms: _457  and  _458
REMARK  195  A    between atoms: _461  and  _463
REMARK  196  A    between atoms: _463  and  _464
REMARK  197  A    between atoms: _466  and  _468
REMARK  198  A    between atoms: _468  and  _469
REMARK  199  A    between atoms: _471  and  _473
REMARK  200  A    between atoms: _473  and  _474
REMARK  201  A    between atoms: _473  and  _476
REMARK  202  A    between atoms: _476  and  _477
REMARK  203  A    between atoms: _483  and  _485
REMARK  204  A    between atoms: _485  and  _486
REMARK  205  A    between atoms: _485  and  _488
REMARK  206  A    between atoms: _488  and  _489
REMARK  207  A    between atoms: _492  and  _494
REMARK  208  A    between atoms: _494  and  _495
REMARK  209  A    between atoms: _494  and  _497
REMARK  210  A    between atoms: _500  and  _502
REMARK  211  A    between atoms: _502  and  _503
REMARK  212  A    between atoms: _502  and  _505
REMARK  213  A    between atoms: _505  and  _506
REMARK  214  A    between atoms: _509  and  _511
REMARK  215  A    between atoms: _511  and  _512
REMARK  216  A    between atoms: _511  and  _514
REMARK  217  A    between atoms: _514  and  _515
REMARK  218  A    between atoms: _519  and  _520
REMARK  219  A    between atoms: _525  and  _527
REMARK  220  A    between atoms: _527  and  _528
REMARK  221  A    between atoms: _527  and  _530
REMARK  222  A    between atoms: _530  and  _531
REMARK  223  A    between atoms: _534  and  _536
REMARK  224  A    between atoms: _536  and  _537
REMARK  225  A    between atoms: _536  and  _539
REMARK  226  A    between atoms: _539  and  _540
REMARK  227  A    between atoms: _545  and  _547
REMARK  228  A    between atoms: _547  and  _548
REMARK  229  A    between atoms: _547  and  _550
REMARK  230  A    between atoms: _553  and  _555
REMARK  231  A    between atoms: _555  and  _556
REMARK  232  A    between atoms: _555  and  _558
REMARK  233  A    between atoms: _558  and  _559
REMARK  234  A    between atoms: _562  and  _564
REMARK  235  A    between atoms: _564  and  _565
REMARK  236  A    between atoms: _567  and  _569
REMARK  237  A    between atoms: _569  and  _570
REMARK  238  A    between atoms: _569  and  _572
REMARK  239  A    between atoms: _572  and  _573
REMARK  240  A    between atoms: _573  and  _574
REMARK  241  A    between atoms: _574  and  _575
REMARK                            x       y       z     vdW  Elec       q    Type
REMARK                         _______ _______ _______ _____ _____    ______ ____
ROOT
ATOM      1  O   HOH     1       3.409  25.730   7.292  0.00  0.00    +0.000 OA
ENDROOT
TORSDOF 0
REMARK  Name = ../refined-set-2016/4a4q/4a4q_pocket.pdb
REMARK  241 active torsions:
REMARK  status: ('A' for Active; 'I' for Inactive)
REMARK    1  A    between atoms: _1  and  _3
REMARK    2  A    between atoms: _3  and  _4
REMARK    3  A    between atoms: _3  and  _6
REMARK    4  A    between atoms: _6  and  _7
REMARK    5  A    between atoms: _7  and  _8
REMARK    6  A    between atoms: _8  and  _9
REMARK    7  A    between atoms: _18  and  _20
REMARK    8  A    between atoms: _20  and  _21
REMARK    9  A    between atoms: _20  and  _23
REMARK   10  A    between atoms: _23  and  _24
REMARK   11  A    between atoms: _27  and  _29
REMARK   12  A    between atoms: _29  and  _30
REMARK   13  A    between atoms: _29  and  _32
REMARK   14  A    between atoms: _32  and  _33
REMARK   15  A    between atoms: _36  and  _38
REMARK   16  A    between atoms: _38  and  _39
REMARK   17  A    between atoms: _38  and  _41
REMARK   18  A    between atoms: _41  and  _42
REMARK   19  A    between atoms: _45  and  _47
REMARK   20  A    between atoms: _47  and  _48
REMARK   21  A    between atoms: _47  and  _50
REMARK   22  A    between atoms: _50  and  _51
REMARK   23  A    between atoms: _54  and  _56
REMARK   24  A    between atoms: _56  and  _57
REMARK   25  A    between atoms: _59  and  _61
REMARK   26  A    between atoms: _61  and  _62
REMARK   27  A    between atoms: _65  and  _67
REMARK   28  A    between atoms: _67  and  _68
REMARK   29  A    between atoms: _67  and  _70
REMARK   30  A    between atoms: _70  and  _71
REMARK   31  A    between atoms: _74  and  _76
REMARK   32  A    between atoms: _76  and  _77
REMARK   33  A    between atoms: _76  and  _79
REMARK   34  A    between atoms: _79  and  _80
REMARK   35  A    between atoms: _83  and  _85
REMARK   36  A    between atoms: _85  and  _86
REMARK   37  A    between atoms: _85  and  _88
REMARK   38  A    between atoms: _88  and  _89
REMARK   39  A    between atoms: _92  and  _94
REMARK   40  A    between atoms: _94  and  _95
REMARK   41  A    between atoms: _94  and  _97
REMARK   42  A    between atoms: _100  and  _102
REMARK   43  A    between atoms: _102  and  _103
REMARK   44  A    between atoms: _102  and  _105
REMARK   45  A    between atoms: _105  and  _106
REMARK   46  A    between atoms: _109  and  _111
REMARK   47  A    between atoms: _111  and  _112
REMARK   48  A    between atoms: _111  and  _114
REMARK   49  A    between atoms: _114  and  _115
REMARK   50  A    between atoms: _115  and  _116
REMARK   51  A    between atoms: _119  and  _121
REMARK   52  A    between atoms: _121  and  _122
REMARK   53  A    between atoms: _121  and  _124
REMARK   54  A    between atoms: _124  and  _125
REMARK   55  A    between atoms: _125  and  _126
REMARK   56  A    between atoms: _126  and  _127
REMARK   57  A    between atoms: _127  and  _128
REMARK   58  A    between atoms: _132  and  _134
REMARK   59  A    between atoms: _134  and  _135
REMARK   60  A    between atoms: _134  and  _137
REMARK   61  A    between atoms: _137  and  _138
REMARK   62  A    between atoms: _138  and  _139
REMARK   63  A    between atoms: _141  and  _143
REMARK   64  A    between atoms: _143  and  _144
REMARK   65  A    between atoms: _143  and  _146
REMARK   66  A    between atoms: _146  and  _147
REMARK   67  A    between atoms: _150  and  _152
REMARK   68  A    between atoms: _152  and  _153
REMARK   69  A    between atoms: _155  and  _157
REMARK   70  A    between atoms: _157  and  _158
REMARK   71  A    between atoms: _160  and  _162
REMARK   72  A    between atoms: _162  and  _163
REMARK   73  A    between atoms: _162  and  _165
REMARK   74  A    between atoms: _165  and  _166
REMARK   75  A    between atoms: _169  and  _171
REMARK   76  A    between atoms: _171  and  _172
REMARK   77  A    between atoms: _174  and  _176
REMARK   78  A    between atoms: _176  and  _177
REMARK   79  A    between atoms: _179  and  _181
REMARK   80  A    between atoms: _181  and  _182
REMARK   81  A    between atoms: _181  and  _184
REMARK   82  A    between atoms: _184  and  _185
REMARK   83  A    between atoms: _191  and  _193
REMARK   84  A    between atoms: _193  and  _194
REMARK   85  A    between atoms: _193  and  _196
REMARK   86  A    between atoms: _196  and  _197
REMARK   87  A    between atoms: _200  and  _202
REMARK   88  A    between atoms: _202  and  _203
REMARK   89  A    between atoms: _202  and  _205
REMARK   90  A    between atoms: _208  and  _210
REMARK   91  A    between atoms: _210  and  _211
REMARK   92  A    between atoms: _210  and  _213
REMARK   93  A    between atoms: _213  and  _214
REMARK   94  A    between atoms: _217  and  _219
REMARK   95  A    between atoms: _219  and  _220
REMARK   96  A    between atoms: _219  and  _222
REMARK   97  A    between atoms: _222  and  _223
REMARK   98  A    between atoms: _227  and  _228
REMARK   99  A    between atoms: _233  and  _235
REMARK  100  A    between atoms: _235  and  _236
REMARK  101  A    between atoms: _235  and  _238
REMARK  102  A    between atoms: _238  and  _239
REMARK  103  A    between atoms: _242  and  _244
REMARK  104  A    between atoms: _244  and  _245
REMARK  105  A    between atoms: _244  and  _247
REMARK  106  A    between atoms: _247  and  _248
REMARK  107  A    between atoms: _253  and  _255
REMARK  108  A    between atoms: _255  and  _256
REMARK  109  A    between atoms: _255  and  _258
REMARK  110  A    between atoms: _261  and  _263
REMARK  111  A    between atoms: _263  and  _264
REMARK  112  A    between atoms: _263  and  _266
REMARK  113  A    between atoms: _266  and  _267
REMARK  114  A    between atoms: _270  and  _272
REMARK  115  A    between atoms: _272  and  _273
REMARK  116  A    between atoms: _275  and  _277
REMARK  117  A    between atoms: _277  and  _278
REMARK  118  A    between atoms: _277  and  _280
REMARK  119  A    between atoms: _280  and  _281
REMARK  120  A    between atoms: _281  and  _282
REMARK  121  A    between atoms: _282  and  _283
REMARK  122  A    between atoms: _292  and  _294
REMARK  123  A    between atoms: _294  and  _295
REMARK  124  A    between atoms: _294  and  _297
REMARK  125  A    between atoms: _297  and  _298
REMARK  126  A    between atoms: _303  and  _305
REMARK  127  A    between atoms: _305  and  _306
REMARK  128  A    between atoms: _305  and  _308
REMARK  129  A    between atoms: _308  and  _309
REMARK  130  A    between atoms: _309  and  _310
REMARK  131  A    between atoms: _310  and  _311
REMARK  132  A    between atoms: _320  and  _322
REMARK  133  A    between atoms: _322  and  _323
REMARK  134  A    between atoms: _322  and  _325
REMARK  135  A    between atoms: _325  and  _326
REMARK  136  A    between atoms: _329  and  _331
REMARK  137  A    between atoms: _331  and  _332
REMARK  138  A    between atoms: _331  and  _334
REMARK  139  A    between atoms: _334  and  _335
REMARK  140  A    between atoms: _338  and  _340
REMARK  141  A    between atoms: _340  and  _341
REMARK  142  A    between atoms: _340  and  _343
REMARK  143  A    between atoms: _343  and  _344
REMARK  144  A    between atoms: _347  and  _349
REMARK  145  A    between atoms: _349  and  _350
REMARK  146  A    between atoms: _349  and  _352
REMARK  147  A    between atoms: _352  and  _353
REMARK  148  A    between atoms: _356  and  _358
REMARK  149  A    between atoms: _358  and  _359
REMARK  150  A    between atoms: _358  and  _361
REMARK  151  A    between atoms: _361  and  _362
REMARK  152  A    between atoms: _365  and  _367
REMARK  153  A    between atoms: _367  and  _368
REMARK  154  A    between atoms: _370  and  _372
REMARK  155  A    between atoms: _372  and  _373
REMARK  156  A    between atoms: _376  and  _378
REMARK  157  A    between atoms: _378  and  _379
REMARK  158  A    between atoms: _378  and  _381
REMARK  159  A    between atoms: _381  and  _382
REMARK  160  A    between atoms: _385  and  _387
REMARK  161  A    between atoms: _387  and  _388
REMARK  162  A    between atoms: _387  and  _390
REMARK  163  A    between atoms: _390  and  _391
REMARK  164  A    between atoms: _394  and  _396
REMARK  165  A    between atoms: _396  and  _397
REMARK  166  A    between atoms: _396  and  _399
REMARK  167  A    between atoms: _399  and  _400
REMARK  168  A    between atoms: _403  and  _405
REMARK  169  A    between atoms: _405  and  _406
REMARK  170  A    between atoms: _405  and  _408
REMARK  171  A    between atoms: _411  and  _413
REMARK  172  A    between atoms: _413  and  _414
REMARK  173  A    between atoms: _413  and  _416
REMARK  174  A    between atoms: _416  and  _417
REMARK  175  A    between atoms: _417  and  _418
REMARK  176  A    between atoms: _418  and  _419
REMARK  177  A    between atoms: _419  and  _420
REMARK  178  A    between atoms: _424  and  _426
REMARK  179  A    between atoms: _426  and  _427
REMARK  180  A    between atoms: _426  and  _429
REMARK  181  A    between atoms: _429  and  _430
REMARK  182  A    between atoms: _430  and  _431
REMARK  183  A    between atoms: _433  and  _435
REMARK  184  A    between atoms: _435  and  _436
REMARK  185  A    between atoms: _435  and  _438
REMARK  186  A    between atoms: _438  and  _439
REMARK  187  A    between atoms: _442  and  _444
REMARK  188  A    between atoms: _444  and  _445
REMARK  189  A    between atoms: _447  and  _449
REMARK  190  A    between atoms: _449  and  _450
REMARK  191  A    between atoms: _452  and  _454
REMARK  192  A    between atoms: _454  and  _455
REMARK  193  A    between atoms: _454  and  _457
REMARK  194  A    between atoms: _457  and  _458
REMARK  195  A    between atoms: _461  and  _463
REMARK  196  A    between atoms: _463  and  _464
REMARK  197  A    between atoms: _466  and  _468
REMARK  198  A    between atoms: _468  and  _469
REMARK  199  A    between atoms: _471  and  _473
REMARK  200  A    between atoms: _473  and  _474
REMARK  201  A    between atoms: _473  and  _476
REMARK  202  A    between atoms: _476  and  _477
REMARK  203  A    between atoms: _483  and  _485
REMARK  204  A    between atoms: _485  and  _486
REMARK  205  A    between atoms: _485  and  _488
REMARK  206  A    between atoms: _488  and  _489
REMARK  207  A    between atoms: _492  and  _494
REMARK  208  A    between atoms: _494  and  _495
REMARK  209  A    between atoms: _494  and  _497
REMARK  210  A    between atoms: _500  and  _502
REMARK  211  A    between atoms: _502  and  _503
REMARK  212  A    between atoms: _502  and  _505
REMARK  213  A    between atoms: _505  and  _506
REMARK  214  A    between atoms: _509  and  _511
REMARK  215  A    between atoms: _511  and  _512
REMARK  216  A    between atoms: _511  and  _514
REMARK  217  A    between atoms: _514  and  _515
REMARK  218  A    between atoms: _519  and  _520
REMARK  219  A    between atoms: _525  and  _527
REMARK  220  A    between atoms: _527  and  _528
REMARK  221  A    between atoms: _527  and  _530
REMARK  222  A    between atoms: _530  and  _531
REMARK  223  A    between atoms: _534  and  _536
REMARK  224  A    between atoms: _536  and  _537
REMARK  225  A    between atoms: _536  and  _539
REMARK  226  A    between atoms: _539  and  _540
REMARK  227  A    between atoms: _545  and  _547
REMARK  228  A    between atoms: _547  and  _548
REMARK  229  A    between atoms: _547  and  _550
REMARK  230  A    between atoms: _553  and  _555
REMARK  231  A    between atoms: _555  and  _556
REMARK  232  A    between atoms: _555  and  _558
REMARK  233  A    between atoms: _558  and  _559
REMARK  234  A    between atoms: _562  and  _564
REMARK  235  A    between atoms: _564  and  _565
REMARK  236  A    between atoms: _567  and  _569
REMARK  237  A    between atoms: _569  and  _570
REMARK  238  A    between atoms: _569  and  _572
REMARK  239  A    between atoms: _572  and  _573
REMARK  240  A    between atoms: _573  and  _574
REMARK  241  A    between atoms: _574  and  _575
REMARK                            x       y       z     vdW  Elec       q    Type
REMARK                         _______ _______ _______ _____ _____    ______ ____
ROOT
ATOM      1  O   HOH     1      11.219  20.397   6.776  0.00  0.00    +0.000 OA
ENDROOT
TORSDOF 0
REMARK  Name = ../refined-set-2016/4a4q/4a4q_pocket.pdb
REMARK  241 active torsions:
REMARK  status: ('A' for Active; 'I' for Inactive)
REMARK    1  A    between atoms: _1  and  _3
REMARK    2  A    between atoms: _3  and  _4
REMARK    3  A    between atoms: _3  and  _6
REMARK    4  A    between atoms: _6  and  _7
REMARK    5  A    between atoms: _7  and  _8
REMARK    6  A    between atoms: _8  and  _9
REMARK    7  A    between atoms: _18  and  _20
REMARK    8  A    between atoms: _20  and  _21
REMARK    9  A    between atoms: _20  and  _23
REMARK   10  A    between atoms: _23  and  _24
REMARK   11  A    between atoms: _27  and  _29
REMARK   12  A    between atoms: _29  and  _30
REMARK   13  A    between atoms: _29  and  _32
REMARK   14  A    between atoms: _32  and  _33
REMARK   15  A    between atoms: _36  and  _38
REMARK   16  A    between atoms: _38  and  _39
REMARK   17  A    between atoms: _38  and  _41
REMARK   18  A    between atoms: _41  and  _42
REMARK   19  A    between atoms: _45  and  _47
REMARK   20  A    between atoms: _47  and  _48
REMARK   21  A    between atoms: _47  and  _50
REMARK   22  A    between atoms: _50  and  _51
REMARK   23  A    between atoms: _54  and  _56
REMARK   24  A    between atoms: _56  and  _57
REMARK   25  A    between atoms: _59  and  _61
REMARK   26  A    between atoms: _61  and  _62
REMARK   27  A    between atoms: _65  and  _67
REMARK   28  A    between atoms: _67  and  _68
REMARK   29  A    between atoms: _67  and  _70
REMARK   30  A    between atoms: _70  and  _71
REMARK   31  A    between atoms: _74  and  _76
REMARK   32  A    between atoms: _76  and  _77
REMARK   33  A    between atoms: _76  and  _79
REMARK   34  A    between atoms: _79  and  _80
REMARK   35  A    between atoms: _83  and  _85
REMARK   36  A    between atoms: _85  and  _86
REMARK   37  A    between atoms: _85  and  _88
REMARK   38  A    between atoms: _88  and  _89
REMARK   39  A    between atoms: _92  and  _94
REMARK   40  A    between atoms: _94  and  _95
REMARK   41  A    between atoms: _94  and  _97
REMARK   42  A    between atoms: _100  and  _102
REMARK   43  A    between atoms: _102  and  _103
REMARK   44  A    between atoms: _102  and  _105
REMARK   45  A    between atoms: _105  and  _106
REMARK   46  A    between atoms: _109  and  _111
REMARK   47  A    between atoms: _111  and  _112
REMARK   48  A    between atoms: _111  and  _114
REMARK   49  A    between atoms: _114  and  _115
REMARK   50  A    between atoms: _115  and  _116
REMARK   51  A    between atoms: _119  and  _121
REMARK   52  A    between atoms: _121  and  _122
REMARK   53  A    between atoms: _121  and  _124
REMARK   54  A    between atoms: _124  and  _125
REMARK   55  A    between atoms: _125  and  _126
REMARK   56  A    between atoms: _126  and  _127
REMARK   57  A    between atoms: _127  and  _128
REMARK   58  A    between atoms: _132  and  _134
REMARK   59  A    between atoms: _134  and  _135
REMARK   60  A    between atoms: _134  and  _137
REMARK   61  A    between atoms: _137  and  _138
REMARK   62  A    between atoms: _138  and  _139
REMARK   63  A    between atoms: _141  and  _143
REMARK   64  A    between atoms: _143  and  _144
REMARK   65  A    between atoms: _143  and  _146
REMARK   66  A    between atoms: _146  and  _147
REMARK   67  A    between atoms: _150  and  _152
REMARK   68  A    between atoms: _152  and  _153
REMARK   69  A    between atoms: _155  and  _157
REMARK   70  A    between atoms: _157  and  _158
REMARK   71  A    between atoms: _160  and  _162
REMARK   72  A    between atoms: _162  and  _163
REMARK   73  A    between atoms: _162  and  _165
REMARK   74  A    between atoms: _165  and  _166
REMARK   75  A    between atoms: _169  and  _171
REMARK   76  A    between atoms: _171  and  _172
REMARK   77  A    between atoms: _174  and  _176
REMARK   78  A    between atoms: _176  and  _177
REMARK   79  A    between atoms: _179  and  _181
REMARK   80  A    between atoms: _181  and  _182
REMARK   81  A    between atoms: _181  and  _184
REMARK   82  A    between atoms: _184  and  _185
REMARK   83  A    between atoms: _191  and  _193
REMARK   84  A    between atoms: _193  and  _194
REMARK   85  A    between atoms: _193  and  _196
REMARK   86  A    between atoms: _196  and  _197
REMARK   87  A    between atoms: _200  and  _202
REMARK   88  A    between atoms: _202  and  _203
REMARK   89  A    between atoms: _202  and  _205
REMARK   90  A    between atoms: _208  and  _210
REMARK   91  A    between atoms: _210  and  _211
REMARK   92  A    between atoms: _210  and  _213
REMARK   93  A    between atoms: _213  and  _214
REMARK   94  A    between atoms: _217  and  _219
REMARK   95  A    between atoms: _219  and  _220
REMARK   96  A    between atoms: _219  and  _222
REMARK   97  A    between atoms: _222  and  _223
REMARK   98  A    between atoms: _227  and  _228
REMARK   99  A    between atoms: _233  and  _235
REMARK  100  A    between atoms: _235  and  _236
REMARK  101  A    between atoms: _235  and  _238
REMARK  102  A    between atoms: _238  and  _239
REMARK  103  A    between atoms: _242  and  _244
REMARK  104  A    between atoms: _244  and  _245
REMARK  105  A    between atoms: _244  and  _247
REMARK  106  A    between atoms: _247  and  _248
REMARK  107  A    between atoms: _253  and  _255
REMARK  108  A    between atoms: _255  and  _256
REMARK  109  A    between atoms: _255  and  _258
REMARK  110  A    between atoms: _261  and  _263
REMARK  111  A    between atoms: _263  and  _264
REMARK  112  A    between atoms: _263  and  _266
REMARK  113  A    between atoms: _266  and  _267
REMARK  114  A    between atoms: _270  and  _272
REMARK  115  A    between atoms: _272  and  _273
REMARK  116  A    between atoms: _275  and  _277
REMARK  117  A    between atoms: _277  and  _278
REMARK  118  A    between atoms: _277  and  _280
REMARK  119  A    between atoms: _280  and  _281
REMARK  120  A    between atoms: _281  and  _282
REMARK  121  A    between atoms: _282  and  _283
REMARK  122  A    between atoms: _292  and  _294
REMARK  123  A    between atoms: _294  and  _295
REMARK  124  A    between atoms: _294  and  _297
REMARK  125  A    between atoms: _297  and  _298
REMARK  126  A    between atoms: _303  and  _305
REMARK  127  A    between atoms: _305  and  _306
REMARK  128  A    between atoms: _305  and  _308
REMARK  129  A    between atoms: _308  and  _309
REMARK  130  A    between atoms: _309  and  _310
REMARK  131  A    between atoms: _310  and  _311
REMARK  132  A    between atoms: _320  and  _322
REMARK  133  A    between atoms: _322  and  _323
REMARK  134  A    between atoms: _322  and  _325
REMARK  135  A    between atoms: _325  and  _326
REMARK  136  A    between atoms: _329  and  _331
REMARK  137  A    between atoms: _331  and  _332
REMARK  138  A    between atoms: _331  and  _334
REMARK  139  A    between atoms: _334  and  _335
REMARK  140  A    between atoms: _338  and  _340
REMARK  141  A    between atoms: _340  and  _341
REMARK  142  A    between atoms: _340  and  _343
REMARK  143  A    between atoms: _343  and  _344
REMARK  144  A    between atoms: _347  and  _349
REMARK  145  A    between atoms: _349  and  _350
REMARK  146  A    between atoms: _349  and  _352
REMARK  147  A    between atoms: _352  and  _353
REMARK  148  A    between atoms: _356  and  _358
REMARK  149  A    between atoms: _358  and  _359
REMARK  150  A    between atoms: _358  and  _361
REMARK  151  A    between atoms: _361  and  _362
REMARK  152  A    between atoms: _365  and  _367
REMARK  153  A    between atoms: _367  and  _368
REMARK  154  A    between atoms: _370  and  _372
REMARK  155  A    between atoms: _372  and  _373
REMARK  156  A    between atoms: _376  and  _378
REMARK  157  A    between atoms: _378  and  _379
REMARK  158  A    between atoms: _378  and  _381
REMARK  159  A    between atoms: _381  and  _382
REMARK  160  A    between atoms: _385  and  _387
REMARK  161  A    between atoms: _387  and  _388
REMARK  162  A    between atoms: _387  and  _390
REMARK  163  A    between atoms: _390  and  _391
REMARK  164  A    between atoms: _394  and  _396
REMARK  165  A    between atoms: _396  and  _397
REMARK  166  A    between atoms: _396  and  _399
REMARK  167  A    between atoms: _399  and  _400
REMARK  168  A    between atoms: _403  and  _405
REMARK  169  A    between atoms: _405  and  _406
REMARK  170  A    between atoms: _405  and  _408
REMARK  171  A    between atoms: _411  and  _413
REMARK  172  A    between atoms: _413  and  _414
REMARK  173  A    between atoms: _413  and  _416
REMARK  174  A    between atoms: _416  and  _417
REMARK  175  A    between atoms: _417  and  _418
REMARK  176  A    between atoms: _418  and  _419
REMARK  177  A    between atoms: _419  and  _420
REMARK  178  A    between atoms: _424  and  _426
REMARK  179  A    between atoms: _426  and  _427
REMARK  180  A    between atoms: _426  and  _429
REMARK  181  A    between atoms: _429  and  _430
REMARK  182  A    between atoms: _430  and  _431
REMARK  183  A    between atoms: _433  and  _435
REMARK  184  A    between atoms: _435  and  _436
REMARK  185  A    between atoms: _435  and  _438
REMARK  186  A    between atoms: _438  and  _439
REMARK  187  A    between atoms: _442  and  _444
REMARK  188  A    between atoms: _444  and  _445
REMARK  189  A    between atoms: _447  and  _449
REMARK  190  A    between atoms: _449  and  _450
REMARK  191  A    between atoms: _452  and  _454
REMARK  192  A    between atoms: _454  and  _455
REMARK  193  A    between atoms: _454  and  _457
REMARK  194  A    between atoms: _457  and  _458
REMARK  195  A    between atoms: _461  and  _463
REMARK  196  A    between atoms: _463  and  _464
REMARK  197  A    between atoms: _466  and  _468
REMARK  198  A    between atoms: _468  and  _469
REMARK  199  A    between atoms: _471  and  _473
REMARK  200  A    between atoms: _473  and  _474
REMARK  201  A    between atoms: _473  and  _476
REMARK  202  A    between atoms: _476  and  _477
REMARK  203  A    between atoms: _483  and  _485
REMARK  204  A    between atoms: _485  and  _486
REMARK  205  A    between atoms: _485  and  _488
REMARK  206  A    between atoms: _488  and  _489
REMARK  207  A    between atoms: _492  and  _494
REMARK  208  A    between atoms: _494  and  _495
REMARK  209  A    between atoms: _494  and  _497
REMARK  210  A    between atoms: _500  and  _502
REMARK  211  A    between atoms: _502  and  _503
REMARK  212  A    between atoms: _502  and  _505
REMARK  213  A    between atoms: _505  and  _506
REMARK  214  A    between atoms: _509  and  _511
REMARK  215  A    between atoms: _511  and  _512
REMARK  216  A    between atoms: _511  and  _514
REMARK  217  A    between atoms: _514  and  _515
REMARK  218  A    between atoms: _519  and  _520
REMARK  219  A    between atoms: _525  and  _527
REMARK  220  A    between atoms: _527  and  _528
REMARK  221  A    between atoms: _527  and  _530
REMARK  222  A    between atoms: _530  and  _531
REMARK  223  A    between atoms: _534  and  _536
REMARK  224  A    between atoms: _536  and  _537
REMARK  225  A    between atoms: _536  and  _539
REMARK  226  A    between atoms: _539  and  _540
REMARK  227  A    between atoms: _545  and  _547
REMARK  228  A    between atoms: _547  and  _548
REMARK  229  A    between atoms: _547  and  _550
REMARK  230  A    between atoms: _553  and  _555
REMARK  231  A    between atoms: _555  and  _556
REMARK  232  A    between atoms: _555  and  _558
REMARK  233  A    between atoms: _558  and  _559
REMARK  234  A    between atoms: _562  and  _564
REMARK  235  A    between atoms: _564  and  _565
REMARK  236  A    between atoms: _567  and  _569
REMARK  237  A    between atoms: _569  and  _570
REMARK  238  A    between atoms: _569  and  _572
REMARK  239  A    between atoms: _572  and  _573
REMARK  240  A    between atoms: _573  and  _574
REMARK  241  A    between atoms: _574  and  _575
REMARK                            x       y       z     vdW  Elec       q    Type
REMARK                         _______ _______ _______ _____ _____    ______ ____
ROOT
ATOM      1  O   HOH     1      17.176  17.244  16.154  0.00  0.00    +0.000 OA
ENDROOT
TORSDOF 0
REMARK  Name = ../refined-set-2016/4a4q/4a4q_pocket.pdb
REMARK  241 active torsions:
REMARK  status: ('A' for Active; 'I' for Inactive)
REMARK    1  A    between atoms: _1  and  _3
REMARK    2  A    between atoms: _3  and  _4
REMARK    3  A    between atoms: _3  and  _6
REMARK    4  A    between atoms: _6  and  _7
REMARK    5  A    between atoms: _7  and  _8
REMARK    6  A    between atoms: _8  and  _9
REMARK    7  A    between atoms: _18  and  _20
REMARK    8  A    between atoms: _20  and  _21
REMARK    9  A    between atoms: _20  and  _23
REMARK   10  A    between atoms: _23  and  _24
REMARK   11  A    between atoms: _27  and  _29
REMARK   12  A    between atoms: _29  and  _30
REMARK   13  A    between atoms: _29  and  _32
REMARK   14  A    between atoms: _32  and  _33
REMARK   15  A    between atoms: _36  and  _38
REMARK   16  A    between atoms: _38  and  _39
REMARK   17  A    between atoms: _38  and  _41
REMARK   18  A    between atoms: _41  and  _42
REMARK   19  A    between atoms: _45  and  _47
REMARK   20  A    between atoms: _47  and  _48
REMARK   21  A    between atoms: _47  and  _50
REMARK   22  A    between atoms: _50  and  _51
REMARK   23  A    between atoms: _54  and  _56
REMARK   24  A    between atoms: _56  and  _57
REMARK   25  A    between atoms: _59  and  _61
REMARK   26  A    between atoms: _61  and  _62
REMARK   27  A    between atoms: _65  and  _67
REMARK   28  A    between atoms: _67  and  _68
REMARK   29  A    between atoms: _67  and  _70
REMARK   30  A    between atoms: _70  and  _71
REMARK   31  A    between atoms: _74  and  _76
REMARK   32  A    between atoms: _76  and  _77
REMARK   33  A    between atoms: _76  and  _79
REMARK   34  A    between atoms: _79  and  _80
REMARK   35  A    between atoms: _83  and  _85
REMARK   36  A    between atoms: _85  and  _86
REMARK   37  A    between atoms: _85  and  _88
REMARK   38  A    between atoms: _88  and  _89
REMARK   39  A    between atoms: _92  and  _94
REMARK   40  A    between atoms: _94  and  _95
REMARK   41  A    between atoms: _94  and  _97
REMARK   42  A    between atoms: _100  and  _102
REMARK   43  A    between atoms: _102  and  _103
REMARK   44  A    between atoms: _102  and  _105
REMARK   45  A    between atoms: _105  and  _106
REMARK   46  A    between atoms: _109  and  _111
REMARK   47  A    between atoms: _111  and  _112
REMARK   48  A    between atoms: _111  and  _114
REMARK   49  A    between atoms: _114  and  _115
REMARK   50  A    between atoms: _115  and  _116
REMARK   51  A    between atoms: _119  and  _121
REMARK   52  A    between atoms: _121  and  _122
REMARK   53  A    between atoms: _121  and  _124
REMARK   54  A    between atoms: _124  and  _125
REMARK   55  A    between atoms: _125  and  _126
REMARK   56  A    between atoms: _126  and  _127
REMARK   57  A    between atoms: _127  and  _128
REMARK   58  A    between atoms: _132  and  _134
REMARK   59  A    between atoms: _134  and  _135
REMARK   60  A    between atoms: _134  and  _137
REMARK   61  A    between atoms: _137  and  _138
REMARK   62  A    between atoms: _138  and  _139
REMARK   63  A    between atoms: _141  and  _143
REMARK   64  A    between atoms: _143  and  _144
REMARK   65  A    between atoms: _143  and  _146
REMARK   66  A    between atoms: _146  and  _147
REMARK   67  A    between atoms: _150  and  _152
REMARK   68  A    between atoms: _152  and  _153
REMARK   69  A    between atoms: _155  and  _157
REMARK   70  A    between atoms: _157  and  _158
REMARK   71  A    between atoms: _160  and  _162
REMARK   72  A    between atoms: _162  and  _163
REMARK   73  A    between atoms: _162  and  _165
REMARK   74  A    between atoms: _165  and  _166
REMARK   75  A    between atoms: _169  and  _171
REMARK   76  A    between atoms: _171  and  _172
REMARK   77  A    between atoms: _174  and  _176
REMARK   78  A    between atoms: _176  and  _177
REMARK   79  A    between atoms: _179  and  _181
REMARK   80  A    between atoms: _181  and  _182
REMARK   81  A    between atoms: _181  and  _184
REMARK   82  A    between atoms: _184  and  _185
REMARK   83  A    between atoms: _191  and  _193
REMARK   84  A    between atoms: _193  and  _194
REMARK   85  A    between atoms: _193  and  _196
REMARK   86  A    between atoms: _196  and  _197
REMARK   87  A    between atoms: _200  and  _202
REMARK   88  A    between atoms: _202  and  _203
REMARK   89  A    between atoms: _202  and  _205
REMARK   90  A    between atoms: _208  and  _210
REMARK   91  A    between atoms: _210  and  _211
REMARK   92  A    between atoms: _210  and  _213
REMARK   93  A    between atoms: _213  and  _214
REMARK   94  A    between atoms: _217  and  _219
REMARK   95  A    between atoms: _219  and  _220
REMARK   96  A    between atoms: _219  and  _222
REMARK   97  A    between atoms: _222  and  _223
REMARK   98  A    between atoms: _227  and  _228
REMARK   99  A    between atoms: _233  and  _235
REMARK  100  A    between atoms: _235  and  _236
REMARK  101  A    between atoms: _235  and  _238
REMARK  102  A    between atoms: _238  and  _239
REMARK  103  A    between atoms: _242  and  _244
REMARK  104  A    between atoms: _244  and  _245
REMARK  105  A    between atoms: _244  and  _247
REMARK  106  A    between atoms: _247  and  _248
REMARK  107  A    between atoms: _253  and  _255
REMARK  108  A    between atoms: _255  and  _256
REMARK  109  A    between atoms: _255  and  _258
REMARK  110  A    between atoms: _261  and  _263
REMARK  111  A    between atoms: _263  and  _264
REMARK  112  A    between atoms: _263  and  _266
REMARK  113  A    between atoms: _266  and  _267
REMARK  114  A    between atoms: _270  and  _272
REMARK  115  A    between atoms: _272  and  _273
REMARK  116  A    between atoms: _275  and  _277
REMARK  117  A    between atoms: _277  and  _278
REMARK  118  A    between atoms: _277  and  _280
REMARK  119  A    between atoms: _280  and  _281
REMARK  120  A    between atoms: _281  and  _282
REMARK  121  A    between atoms: _282  and  _283
REMARK  122  A    between atoms: _292  and  _294
REMARK  123  A    between atoms: _294  and  _295
REMARK  124  A    between atoms: _294  and  _297
REMARK  125  A    between atoms: _297  and  _298
REMARK  126  A    between atoms: _303  and  _305
REMARK  127  A    between atoms: _305  and  _306
REMARK  128  A    between atoms: _305  and  _308
REMARK  129  A    between atoms: _308  and  _309
REMARK  130  A    between atoms: _309  and  _310
REMARK  131  A    between atoms: _310  and  _311
REMARK  132  A    between atoms: _320  and  _322
REMARK  133  A    between atoms: _322  and  _323
REMARK  134  A    between atoms: _322  and  _325
REMARK  135  A    between atoms: _325  and  _326
REMARK  136  A    between atoms: _329  and  _331
REMARK  137  A    between atoms: _331  and  _332
REMARK  138  A    between atoms: _331  and  _334
REMARK  139  A    between atoms: _334  and  _335
REMARK  140  A    between atoms: _338  and  _340
REMARK  141  A    between atoms: _340  and  _341
REMARK  142  A    between atoms: _340  and  _343
REMARK  143  A    between atoms: _343  and  _344
REMARK  144  A    between atoms: _347  and  _349
REMARK  145  A    between atoms: _349  and  _350
REMARK  146  A    between atoms: _349  and  _352
REMARK  147  A    between atoms: _352  and  _353
REMARK  148  A    between atoms: _356  and  _358
REMARK  149  A    between atoms: _358  and  _359
REMARK  150  A    between atoms: _358  and  _361
REMARK  151  A    between atoms: _361  and  _362
REMARK  152  A    between atoms: _365  and  _367
REMARK  153  A    between atoms: _367  and  _368
REMARK  154  A    between atoms: _370  and  _372
REMARK  155  A    between atoms: _372  and  _373
REMARK  156  A    between atoms: _376  and  _378
REMARK  157  A    between atoms: _378  and  _379
REMARK  158  A    between atoms: _378  and  _381
REMARK  159  A    between atoms: _381  and  _382
REMARK  160  A    between atoms: _385  and  _387
REMARK  161  A    between atoms: _387  and  _388
REMARK  162  A    between atoms: _387  and  _390
REMARK  163  A    between atoms: _390  and  _391
REMARK  164  A    between atoms: _394  and  _396
REMARK  165  A    between atoms: _396  and  _397
REMARK  166  A    between atoms: _396  and  _399
REMARK  167  A    between atoms: _399  and  _400
REMARK  168  A    between atoms: _403  and  _405
REMARK  169  A    between atoms: _405  and  _406
REMARK  170  A    between atoms: _405  and  _408
REMARK  171  A    between atoms: _411  and  _413
REMARK  172  A    between atoms: _413  and  _414
REMARK  173  A    between atoms: _413  and  _416
REMARK  174  A    between atoms: _416  and  _417
REMARK  175  A    between atoms: _417  and  _418
REMARK  176  A    between atoms: _418  and  _419
REMARK  177  A    between atoms: _419  and  _420
REMARK  178  A    between atoms: _424  and  _426
REMARK  179  A    between atoms: _426  and  _427
REMARK  180  A    between atoms: _426  and  _429
REMARK  181  A    between atoms: _429  and  _430
REMARK  182  A    between atoms: _430  and  _431
REMARK  183  A    between atoms: _433  and  _435
REMARK  184  A    between atoms: _435  and  _436
REMARK  185  A    between atoms: _435  and  _438
REMARK  186  A    between atoms: _438  and  _439
REMARK  187  A    between atoms: _442  and  _444
REMARK  188  A    between atoms: _444  and  _445
REMARK  189  A    between atoms: _447  and  _449
REMARK  190  A    between atoms: _449  and  _450
REMARK  191  A    between atoms: _452  and  _454
REMARK  192  A    between atoms: _454  and  _455
REMARK  193  A    between atoms: _454  and  _457
REMARK  194  A    between atoms: _457  and  _458
REMARK  195  A    between atoms: _461  and  _463
REMARK  196  A    between atoms: _463  and  _464
REMARK  197  A    between atoms: _466  and  _468
REMARK  198  A    between atoms: _468  and  _469
REMARK  199  A    between atoms: _471  and  _473
REMARK  200  A    between atoms: _473  and  _474
REMARK  201  A    between atoms: _473  and  _476
REMARK  202  A    between atoms: _476  and  _477
REMARK  203  A    between atoms: _483  and  _485
REMARK  204  A    between atoms: _485  and  _486
REMARK  205  A    between atoms: _485  and  _488
REMARK  206  A    between atoms: _488  and  _489
REMARK  207  A    between atoms: _492  and  _494
REMARK  208  A    between atoms: _494  and  _495
REMARK  209  A    between atoms: _494  and  _497
REMARK  210  A    between atoms: _500  and  _502
REMARK  211  A    between atoms: _502  and  _503
REMARK  212  A    between atoms: _502  and  _505
REMARK  213  A    between atoms: _505  and  _506
REMARK  214  A    between atoms: _509  and  _511
REMARK  215  A    between atoms: _511  and  _512
REMARK  216  A    between atoms: _511  and  _514
REMARK  217  A    between atoms: _514  and  _515
REMARK  218  A    between atoms: _519  and  _520
REMARK  219  A    between atoms: _525  and  _527
REMARK  220  A    between atoms: _527  and  _528
REMARK  221  A    between atoms: _527  and  _530
REMARK  222  A    between atoms: _530  and  _531
REMARK  223  A    between atoms: _534  and  _536
REMARK  224  A    between atoms: _536  and  _537
REMARK  225  A    between atoms: _536  and  _539
REMARK  226  A    between atoms: _539  and  _540
REMARK  227  A    between atoms: _545  and  _547
REMARK  228  A    between atoms: _547  and  _548
REMARK  229  A    between atoms: _547  and  _550
REMARK  230  A    between atoms: _553  and  _555
REMARK  231  A    between atoms: _555  and  _556
REMARK  232  A    between atoms: _555  and  _558
REMARK  233  A    between atoms: _558  and  _559
REMARK  234  A    between atoms: _562  and  _564
REMARK  235  A    between atoms: _564  and  _565
REMARK  236  A    between atoms: _567  and  _569
REMARK  237  A    between atoms: _569  and  _570
REMARK  238  A    between atoms: _569  and  _572
REMARK  239  A    between atoms: _572  and  _573
REMARK  240  A    between atoms: _573  and  _574
REMARK  241  A    between atoms: _574  and  _575
REMARK                            x       y       z     vdW  Elec       q    Type
REMARK                         _______ _______ _______ _____ _____    ______ ____
ROOT
ATOM      1  O   HOH     1      21.661  23.335  10.877  0.00  0.00    +0.000 OA
ENDROOT
TORSDOF 0
REMARK  Name = ../refined-set-2016/4a4q/4a4q_pocket.pdb
REMARK  241 active torsions:
REMARK  status: ('A' for Active; 'I' for Inactive)
REMARK    1  A    between atoms: _1  and  _3
REMARK    2  A    between atoms: _3  and  _4
REMARK    3  A    between atoms: _3  and  _6
REMARK    4  A    between atoms: _6  and  _7
REMARK    5  A    between atoms: _7  and  _8
REMARK    6  A    between atoms: _8  and  _9
REMARK    7  A    between atoms: _18  and  _20
REMARK    8  A    between atoms: _20  and  _21
REMARK    9  A    between atoms: _20  and  _23
REMARK   10  A    between atoms: _23  and  _24
REMARK   11  A    between atoms: _27  and  _29
REMARK   12  A    between atoms: _29  and  _30
REMARK   13  A    between atoms: _29  and  _32
REMARK   14  A    between atoms: _32  and  _33
REMARK   15  A    between atoms: _36  and  _38
REMARK   16  A    between atoms: _38  and  _39
REMARK   17  A    between atoms: _38  and  _41
REMARK   18  A    between atoms: _41  and  _42
REMARK   19  A    between atoms: _45  and  _47
REMARK   20  A    between atoms: _47  and  _48
REMARK   21  A    between atoms: _47  and  _50
REMARK   22  A    between atoms: _50  and  _51
REMARK   23  A    between atoms: _54  and  _56
REMARK   24  A    between atoms: _56  and  _57
REMARK   25  A    between atoms: _59  and  _61
REMARK   26  A    between atoms: _61  and  _62
REMARK   27  A    between atoms: _65  and  _67
REMARK   28  A    between atoms: _67  and  _68
REMARK   29  A    between atoms: _67  and  _70
REMARK   30  A    between atoms: _70  and  _71
REMARK   31  A    between atoms: _74  and  _76
REMARK   32  A    between atoms: _76  and  _77
REMARK   33  A    between atoms: _76  and  _79
REMARK   34  A    between atoms: _79  and  _80
REMARK   35  A    between atoms: _83  and  _85
REMARK   36  A    between atoms: _85  and  _86
REMARK   37  A    between atoms: _85  and  _88
REMARK   38  A    between atoms: _88  and  _89
REMARK   39  A    between atoms: _92  and  _94
REMARK   40  A    between atoms: _94  and  _95
REMARK   41  A    between atoms: _94  and  _97
REMARK   42  A    between atoms: _100  and  _102
REMARK   43  A    between atoms: _102  and  _103
REMARK   44  A    between atoms: _102  and  _105
REMARK   45  A    between atoms: _105  and  _106
REMARK   46  A    between atoms: _109  and  _111
REMARK   47  A    between atoms: _111  and  _112
REMARK   48  A    between atoms: _111  and  _114
REMARK   49  A    between atoms: _114  and  _115
REMARK   50  A    between atoms: _115  and  _116
REMARK   51  A    between atoms: _119  and  _121
REMARK   52  A    between atoms: _121  and  _122
REMARK   53  A    between atoms: _121  and  _124
REMARK   54  A    between atoms: _124  and  _125
REMARK   55  A    between atoms: _125  and  _126
REMARK   56  A    between atoms: _126  and  _127
REMARK   57  A    between atoms: _127  and  _128
REMARK   58  A    between atoms: _132  and  _134
REMARK   59  A    between atoms: _134  and  _135
REMARK   60  A    between atoms: _134  and  _137
REMARK   61  A    between atoms: _137  and  _138
REMARK   62  A    between atoms: _138  and  _139
REMARK   63  A    between atoms: _141  and  _143
REMARK   64  A    between atoms: _143  and  _144
REMARK   65  A    between atoms: _143  and  _146
REMARK   66  A    between atoms: _146  and  _147
REMARK   67  A    between atoms: _150  and  _152
REMARK   68  A    between atoms: _152  and  _153
REMARK   69  A    between atoms: _155  and  _157
REMARK   70  A    between atoms: _157  and  _158
REMARK   71  A    between atoms: _160  and  _162
REMARK   72  A    between atoms: _162  and  _163
REMARK   73  A    between atoms: _162  and  _165
REMARK   74  A    between atoms: _165  and  _166
REMARK   75  A    between atoms: _169  and  _171
REMARK   76  A    between atoms: _171  and  _172
REMARK   77  A    between atoms: _174  and  _176
REMARK   78  A    between atoms: _176  and  _177
REMARK   79  A    between atoms: _179  and  _181
REMARK   80  A    between atoms: _181  and  _182
REMARK   81  A    between atoms: _181  and  _184
REMARK   82  A    between atoms: _184  and  _185
REMARK   83  A    between atoms: _191  and  _193
REMARK   84  A    between atoms: _193  and  _194
REMARK   85  A    between atoms: _193  and  _196
REMARK   86  A    between atoms: _196  and  _197
REMARK   87  A    between atoms: _200  and  _202
REMARK   88  A    between atoms: _202  and  _203
REMARK   89  A    between atoms: _202  and  _205
REMARK   90  A    between atoms: _208  and  _210
REMARK   91  A    between atoms: _210  and  _211
REMARK   92  A    between atoms: _210  and  _213
REMARK   93  A    between atoms: _213  and  _214
REMARK   94  A    between atoms: _217  and  _219
REMARK   95  A    between atoms: _219  and  _220
REMARK   96  A    between atoms: _219  and  _222
REMARK   97  A    between atoms: _222  and  _223
REMARK   98  A    between atoms: _227  and  _228
REMARK   99  A    between atoms: _233  and  _235
REMARK  100  A    between atoms: _235  and  _236
REMARK  101  A    between atoms: _235  and  _238
REMARK  102  A    between atoms: _238  and  _239
REMARK  103  A    between atoms: _242  and  _244
REMARK  104  A    between atoms: _244  and  _245
REMARK  105  A    between atoms: _244  and  _247
REMARK  106  A    between atoms: _247  and  _248
REMARK  107  A    between atoms: _253  and  _255
REMARK  108  A    between atoms: _255  and  _256
REMARK  109  A    between atoms: _255  and  _258
REMARK  110  A    between atoms: _261  and  _263
REMARK  111  A    between atoms: _263  and  _264
REMARK  112  A    between atoms: _263  and  _266
REMARK  113  A    between atoms: _266  and  _267
REMARK  114  A    between atoms: _270  and  _272
REMARK  115  A    between atoms: _272  and  _273
REMARK  116  A    between atoms: _275  and  _277
REMARK  117  A    between atoms: _277  and  _278
REMARK  118  A    between atoms: _277  and  _280
REMARK  119  A    between atoms: _280  and  _281
REMARK  120  A    between atoms: _281  and  _282
REMARK  121  A    between atoms: _282  and  _283
REMARK  122  A    between atoms: _292  and  _294
REMARK  123  A    between atoms: _294  and  _295
REMARK  124  A    between atoms: _294  and  _297
REMARK  125  A    between atoms: _297  and  _298
REMARK  126  A    between atoms: _303  and  _305
REMARK  127  A    between atoms: _305  and  _306
REMARK  128  A    between atoms: _305  and  _308
REMARK  129  A    between atoms: _308  and  _309
REMARK  130  A    between atoms: _309  and  _310
REMARK  131  A    between atoms: _310  and  _311
REMARK  132  A    between atoms: _320  and  _322
REMARK  133  A    between atoms: _322  and  _323
REMARK  134  A    between atoms: _322  and  _325
REMARK  135  A    between atoms: _325  and  _326
REMARK  136  A    between atoms: _329  and  _331
REMARK  137  A    between atoms: _331  and  _332
REMARK  138  A    between atoms: _331  and  _334
REMARK  139  A    between atoms: _334  and  _335
REMARK  140  A    between atoms: _338  and  _340
REMARK  141  A    between atoms: _340  and  _341
REMARK  142  A    between atoms: _340  and  _343
REMARK  143  A    between atoms: _343  and  _344
REMARK  144  A    between atoms: _347  and  _349
REMARK  145  A    between atoms: _349  and  _350
REMARK  146  A    between atoms: _349  and  _352
REMARK  147  A    between atoms: _352  and  _353
REMARK  148  A    between atoms: _356  and  _358
REMARK  149  A    between atoms: _358  and  _359
REMARK  150  A    between atoms: _358  and  _361
REMARK  151  A    between atoms: _361  and  _362
REMARK  152  A    between atoms: _365  and  _367
REMARK  153  A    between atoms: _367  and  _368
REMARK  154  A    between atoms: _370  and  _372
REMARK  155  A    between atoms: _372  and  _373
REMARK  156  A    between atoms: _376  and  _378
REMARK  157  A    between atoms: _378  and  _379
REMARK  158  A    between atoms: _378  and  _381
REMARK  159  A    between atoms: _381  and  _382
REMARK  160  A    between atoms: _385  and  _387
REMARK  161  A    between atoms: _387  and  _388
REMARK  162  A    between atoms: _387  and  _390
REMARK  163  A    between atoms: _390  and  _391
REMARK  164  A    between atoms: _394  and  _396
REMARK  165  A    between atoms: _396  and  _397
REMARK  166  A    between atoms: _396  and  _399
REMARK  167  A    between atoms: _399  and  _400
REMARK  168  A    between atoms: _403  and  _405
REMARK  169  A    between atoms: _405  and  _406
REMARK  170  A    between atoms: _405  and  _408
REMARK  171  A    between atoms: _411  and  _413
REMARK  172  A    between atoms: _413  and  _414
REMARK  173  A    between atoms: _413  and  _416
REMARK  174  A    between atoms: _416  and  _417
REMARK  175  A    between atoms: _417  and  _418
REMARK  176  A    between atoms: _418  and  _419
REMARK  177  A    between atoms: _419  and  _420
REMARK  178  A    between atoms: _424  and  _426
REMARK  179  A    between atoms: _426  and  _427
REMARK  180  A    between atoms: _426  and  _429
REMARK  181  A    between atoms: _429  and  _430
REMARK  182  A    between atoms: _430  and  _431
REMARK  183  A    between atoms: _433  and  _435
REMARK  184  A    between atoms: _435  and  _436
REMARK  185  A    between atoms: _435  and  _438
REMARK  186  A    between atoms: _438  and  _439
REMARK  187  A    between atoms: _442  and  _444
REMARK  188  A    between atoms: _444  and  _445
REMARK  189  A    between atoms: _447  and  _449
REMARK  190  A    between atoms: _449  and  _450
REMARK  191  A    between atoms: _452  and  _454
REMARK  192  A    between atoms: _454  and  _455
REMARK  193  A    between atoms: _454  and  _457
REMARK  194  A    between atoms: _457  and  _458
REMARK  195  A    between atoms: _461  and  _463
REMARK  196  A    between atoms: _463  and  _464
REMARK  197  A    between atoms: _466  and  _468
REMARK  198  A    between atoms: _468  and  _469
REMARK  199  A    between atoms: _471  and  _473
REMARK  200  A    between atoms: _473  and  _474
REMARK  201  A    between atoms: _473  and  _476
REMARK  202  A    between atoms: _476  and  _477
REMARK  203  A    between atoms: _483  and  _485
REMARK  204  A    between atoms: _485  and  _486
REMARK  205  A    between atoms: _485  and  _488
REMARK  206  A    between atoms: _488  and  _489
REMARK  207  A    between atoms: _492  and  _494
REMARK  208  A    between atoms: _494  and  _495
REMARK  209  A    between atoms: _494  and  _497
REMARK  210  A    between atoms: _500  and  _502
REMARK  211  A    between atoms: _502  and  _503
REMARK  212  A    between atoms: _502  and  _505
REMARK  213  A    between atoms: _505  and  _506
REMARK  214  A    between atoms: _509  and  _511
REMARK  215  A    between atoms: _511  and  _512
REMARK  216  A    between atoms: _511  and  _514
REMARK  217  A    between atoms: _514  and  _515
REMARK  218  A    between atoms: _519  and  _520
REMARK  219  A    between atoms: _525  and  _527
REMARK  220  A    between atoms: _527  and  _528
REMARK  221  A    between atoms: _527  and  _530
REMARK  222  A    between atoms: _530  and  _531
REMARK  223  A    between atoms: _534  and  _536
REMARK  224  A    between atoms: _536  and  _537
REMARK  225  A    between atoms: _536  and  _539
REMARK  226  A    between atoms: _539  and  _540
REMARK  227  A    between atoms: _545  and  _547
REMARK  228  A    between atoms: _547  and  _548
REMARK  229  A    between atoms: _547  and  _550
REMARK  230  A    between atoms: _553  and  _555
REMARK  231  A    between atoms: _555  and  _556
REMARK  232  A    between atoms: _555  and  _558
REMARK  233  A    between atoms: _558  and  _559
REMARK  234  A    between atoms: _562  and  _564
REMARK  235  A    between atoms: _564  and  _565
REMARK  236  A    between atoms: _567  and  _569
REMARK  237  A    between atoms: _569  and  _570
REMARK  238  A    between atoms: _569  and  _572
REMARK  239  A    between atoms: _572  and  _573
REMARK  240  A    between atoms: _573  and  _574
REMARK  241  A    between atoms: _574  and  _575
REMARK                            x       y       z     vdW  Elec       q    Type
REMARK                         _______ _______ _______ _____ _____    ______ ____
ROOT
ATOM      1  O   HOH     1      19.703  23.896  16.358  0.00  0.00    +0.000 OA
ENDROOT
TORSDOF 0
REMARK  Name = ../refined-set-2016/4a4q/4a4q_pocket.pdb
REMARK  241 active torsions:
REMARK  status: ('A' for Active; 'I' for Inactive)
REMARK    1  A    between atoms: _1  and  _3
REMARK    2  A    between atoms: _3  and  _4
REMARK    3  A    between atoms: _3  and  _6
REMARK    4  A    between atoms: _6  and  _7
REMARK    5  A    between atoms: _7  and  _8
REMARK    6  A    between atoms: _8  and  _9
REMARK    7  A    between atoms: _18  and  _20
REMARK    8  A    between atoms: _20  and  _21
REMARK    9  A    between atoms: _20  and  _23
REMARK   10  A    between atoms: _23  and  _24
REMARK   11  A    between atoms: _27  and  _29
REMARK   12  A    between atoms: _29  and  _30
REMARK   13  A    between atoms: _29  and  _32
REMARK   14  A    between atoms: _32  and  _33
REMARK   15  A    between atoms: _36  and  _38
REMARK   16  A    between atoms: _38  and  _39
REMARK   17  A    between atoms: _38  and  _41
REMARK   18  A    between atoms: _41  and  _42
REMARK   19  A    between atoms: _45  and  _47
REMARK   20  A    between atoms: _47  and  _48
REMARK   21  A    between atoms: _47  and  _50
REMARK   22  A    between atoms: _50  and  _51
REMARK   23  A    between atoms: _54  and  _56
REMARK   24  A    between atoms: _56  and  _57
REMARK   25  A    between atoms: _59  and  _61
REMARK   26  A    between atoms: _61  and  _62
REMARK   27  A    between atoms: _65  and  _67
REMARK   28  A    between atoms: _67  and  _68
REMARK   29  A    between atoms: _67  and  _70
REMARK   30  A    between atoms: _70  and  _71
REMARK   31  A    between atoms: _74  and  _76
REMARK   32  A    between atoms: _76  and  _77
REMARK   33  A    between atoms: _76  and  _79
REMARK   34  A    between atoms: _79  and  _80
REMARK   35  A    between atoms: _83  and  _85
REMARK   36  A    between atoms: _85  and  _86
REMARK   37  A    between atoms: _85  and  _88
REMARK   38  A    between atoms: _88  and  _89
REMARK   39  A    between atoms: _92  and  _94
REMARK   40  A    between atoms: _94  and  _95
REMARK   41  A    between atoms: _94  and  _97
REMARK   42  A    between atoms: _100  and  _102
REMARK   43  A    between atoms: _102  and  _103
REMARK   44  A    between atoms: _102  and  _105
REMARK   45  A    between atoms: _105  and  _106
REMARK   46  A    between atoms: _109  and  _111
REMARK   47  A    between atoms: _111  and  _112
REMARK   48  A    between atoms: _111  and  _114
REMARK   49  A    between atoms: _114  and  _115
REMARK   50  A    between atoms: _115  and  _116
REMARK   51  A    between atoms: _119  and  _121
REMARK   52  A    between atoms: _121  and  _122
REMARK   53  A    between atoms: _121  and  _124
REMARK   54  A    between atoms: _124  and  _125
REMARK   55  A    between atoms: _125  and  _126
REMARK   56  A    between atoms: _126  and  _127
REMARK   57  A    between atoms: _127  and  _128
REMARK   58  A    between atoms: _132  and  _134
REMARK   59  A    between atoms: _134  and  _135
REMARK   60  A    between atoms: _134  and  _137
REMARK   61  A    between atoms: _137  and  _138
REMARK   62  A    between atoms: _138  and  _139
REMARK   63  A    between atoms: _141  and  _143
REMARK   64  A    between atoms: _143  and  _144
REMARK   65  A    between atoms: _143  and  _146
REMARK   66  A    between atoms: _146  and  _147
REMARK   67  A    between atoms: _150  and  _152
REMARK   68  A    between atoms: _152  and  _153
REMARK   69  A    between atoms: _155  and  _157
REMARK   70  A    between atoms: _157  and  _158
REMARK   71  A    between atoms: _160  and  _162
REMARK   72  A    between atoms: _162  and  _163
REMARK   73  A    between atoms: _162  and  _165
REMARK   74  A    between atoms: _165  and  _166
REMARK   75  A    between atoms: _169  and  _171
REMARK   76  A    between atoms: _171  and  _172
REMARK   77  A    between atoms: _174  and  _176
REMARK   78  A    between atoms: _176  and  _177
REMARK   79  A    between atoms: _179  and  _181
REMARK   80  A    between atoms: _181  and  _182
REMARK   81  A    between atoms: _181  and  _184
REMARK   82  A    between atoms: _184  and  _185
REMARK   83  A    between atoms: _191  and  _193
REMARK   84  A    between atoms: _193  and  _194
REMARK   85  A    between atoms: _193  and  _196
REMARK   86  A    between atoms: _196  and  _197
REMARK   87  A    between atoms: _200  and  _202
REMARK   88  A    between atoms: _202  and  _203
REMARK   89  A    between atoms: _202  and  _205
REMARK   90  A    between atoms: _208  and  _210
REMARK   91  A    between atoms: _210  and  _211
REMARK   92  A    between atoms: _210  and  _213
REMARK   93  A    between atoms: _213  and  _214
REMARK   94  A    between atoms: _217  and  _219
REMARK   95  A    between atoms: _219  and  _220
REMARK   96  A    between atoms: _219  and  _222
REMARK   97  A    between atoms: _222  and  _223
REMARK   98  A    between atoms: _227  and  _228
REMARK   99  A    between atoms: _233  and  _235
REMARK  100  A    between atoms: _235  and  _236
REMARK  101  A    between atoms: _235  and  _238
REMARK  102  A    between atoms: _238  and  _239
REMARK  103  A    between atoms: _242  and  _244
REMARK  104  A    between atoms: _244  and  _245
REMARK  105  A    between atoms: _244  and  _247
REMARK  106  A    between atoms: _247  and  _248
REMARK  107  A    between atoms: _253  and  _255
REMARK  108  A    between atoms: _255  and  _256
REMARK  109  A    between atoms: _255  and  _258
REMARK  110  A    between atoms: _261  and  _263
REMARK  111  A    between atoms: _263  and  _264
REMARK  112  A    between atoms: _263  and  _266
REMARK  113  A    between atoms: _266  and  _267
REMARK  114  A    between atoms: _270  and  _272
REMARK  115  A    between atoms: _272  and  _273
REMARK  116  A    between atoms: _275  and  _277
REMARK  117  A    between atoms: _277  and  _278
REMARK  118  A    between atoms: _277  and  _280
REMARK  119  A    between atoms: _280  and  _281
REMARK  120  A    between atoms: _281  and  _282
REMARK  121  A    between atoms: _282  and  _283
REMARK  122  A    between atoms: _292  and  _294
REMARK  123  A    between atoms: _294  and  _295
REMARK  124  A    between atoms: _294  and  _297
REMARK  125  A    between atoms: _297  and  _298
REMARK  126  A    between atoms: _303  and  _305
REMARK  127  A    between atoms: _305  and  _306
REMARK  128  A    between atoms: _305  and  _308
REMARK  129  A    between atoms: _308  and  _309
REMARK  130  A    between atoms: _309  and  _310
REMARK  131  A    between atoms: _310  and  _311
REMARK  132  A    between atoms: _320  and  _322
REMARK  133  A    between atoms: _322  and  _323
REMARK  134  A    between atoms: _322  and  _325
REMARK  135  A    between atoms: _325  and  _326
REMARK  136  A    between atoms: _329  and  _331
REMARK  137  A    between atoms: _331  and  _332
REMARK  138  A    between atoms: _331  and  _334
REMARK  139  A    between atoms: _334  and  _335
REMARK  140  A    between atoms: _338  and  _340
REMARK  141  A    between atoms: _340  and  _341
REMARK  142  A    between atoms: _340  and  _343
REMARK  143  A    between atoms: _343  and  _344
REMARK  144  A    between atoms: _347  and  _349
REMARK  145  A    between atoms: _349  and  _350
REMARK  146  A    between atoms: _349  and  _352
REMARK  147  A    between atoms: _352  and  _353
REMARK  148  A    between atoms: _356  and  _358
REMARK  149  A    between atoms: _358  and  _359
REMARK  150  A    between atoms: _358  and  _361
REMARK  151  A    between atoms: _361  and  _362
REMARK  152  A    between atoms: _365  and  _367
REMARK  153  A    between atoms: _367  and  _368
REMARK  154  A    between atoms: _370  and  _372
REMARK  155  A    between atoms: _372  and  _373
REMARK  156  A    between atoms: _376  and  _378
REMARK  157  A    between atoms: _378  and  _379
REMARK  158  A    between atoms: _378  and  _381
REMARK  159  A    between atoms: _381  and  _382
REMARK  160  A    between atoms: _385  and  _387
REMARK  161  A    between atoms: _387  and  _388
REMARK  162  A    between atoms: _387  and  _390
REMARK  163  A    between atoms: _390  and  _391
REMARK  164  A    between atoms: _394  and  _396
REMARK  165  A    between atoms: _396  and  _397
REMARK  166  A    between atoms: _396  and  _399
REMARK  167  A    between atoms: _399  and  _400
REMARK  168  A    between atoms: _403  and  _405
REMARK  169  A    between atoms: _405  and  _406
REMARK  170  A    between atoms: _405  and  _408
REMARK  171  A    between atoms: _411  and  _413
REMARK  172  A    between atoms: _413  and  _414
REMARK  173  A    between atoms: _413  and  _416
REMARK  174  A    between atoms: _416  and  _417
REMARK  175  A    between atoms: _417  and  _418
REMARK  176  A    between atoms: _418  and  _419
REMARK  177  A    between atoms: _419  and  _420
REMARK  178  A    between atoms: _424  and  _426
REMARK  179  A    between atoms: _426  and  _427
REMARK  180  A    between atoms: _426  and  _429
REMARK  181  A    between atoms: _429  and  _430
REMARK  182  A    between atoms: _430  and  _431
REMARK  183  A    between atoms: _433  and  _435
REMARK  184  A    between atoms: _435  and  _436
REMARK  185  A    between atoms: _435  and  _438
REMARK  186  A    between atoms: _438  and  _439
REMARK  187  A    between atoms: _442  and  _444
REMARK  188  A    between atoms: _444  and  _445
REMARK  189  A    between atoms: _447  and  _449
REMARK  190  A    between atoms: _449  and  _450
REMARK  191  A    between atoms: _452  and  _454
REMARK  192  A    between atoms: _454  and  _455
REMARK  193  A    between atoms: _454  and  _457
REMARK  194  A    between atoms: _457  and  _458
REMARK  195  A    between atoms: _461  and  _463
REMARK  196  A    between atoms: _463  and  _464
REMARK  197  A    between atoms: _466  and  _468
REMARK  198  A    between atoms: _468  and  _469
REMARK  199  A    between atoms: _471  and  _473
REMARK  200  A    between atoms: _473  and  _474
REMARK  201  A    between atoms: _473  and  _476
REMARK  202  A    between atoms: _476  and  _477
REMARK  203  A    between atoms: _483  and  _485
REMARK  204  A    between atoms: _485  and  _486
REMARK  205  A    between atoms: _485  and  _488
REMARK  206  A    between atoms: _488  and  _489
REMARK  207  A    between atoms: _492  and  _494
REMARK  208  A    between atoms: _494  and  _495
REMARK  209  A    between atoms: _494  and  _497
REMARK  210  A    between atoms: _500  and  _502
REMARK  211  A    between atoms: _502  and  _503
REMARK  212  A    between atoms: _502  and  _505
REMARK  213  A    between atoms: _505  and  _506
REMARK  214  A    between atoms: _509  and  _511
REMARK  215  A    between atoms: _511  and  _512
REMARK  216  A    between atoms: _511  and  _514
REMARK  217  A    between atoms: _514  and  _515
REMARK  218  A    between atoms: _519  and  _520
REMARK  219  A    between atoms: _525  and  _527
REMARK  220  A    between atoms: _527  and  _528
REMARK  221  A    between atoms: _527  and  _530
REMARK  222  A    between atoms: _530  and  _531
REMARK  223  A    between atoms: _534  and  _536
REMARK  224  A    between atoms: _536  and  _537
REMARK  225  A    between atoms: _536  and  _539
REMARK  226  A    between atoms: _539  and  _540
REMARK  227  A    between atoms: _545  and  _547
REMARK  228  A    between atoms: _547  and  _548
REMARK  229  A    between atoms: _547  and  _550
REMARK  230  A    between atoms: _553  and  _555
REMARK  231  A    between atoms: _555  and  _556
REMARK  232  A    between atoms: _555  and  _558
REMARK  233  A    between atoms: _558  and  _559
REMARK  234  A    between atoms: _562  and  _564
REMARK  235  A    between atoms: _564  and  _565
REMARK  236  A    between atoms: _567  and  _569
REMARK  237  A    between atoms: _569  and  _570
REMARK  238  A    between atoms: _569  and  _572
REMARK  239  A    between atoms: _572  and  _573
REMARK  240  A    between atoms: _573  and  _574
REMARK  241  A    between atoms: _574  and  _575
REMARK                            x       y       z     vdW  Elec       q    Type
REMARK                         _______ _______ _______ _____ _____    ______ ____
ROOT
ATOM      1  O   HOH     1      18.063  14.624   6.123  0.00  0.00    +0.000 OA
ENDROOT
TORSDOF 0
REMARK  Name = ../refined-set-2016/4a4q/4a4q_pocket.pdb
REMARK  241 active torsions:
REMARK  status: ('A' for Active; 'I' for Inactive)
REMARK    1  A    between atoms: _1  and  _3
REMARK    2  A    between atoms: _3  and  _4
REMARK    3  A    between atoms: _3  and  _6
REMARK    4  A    between atoms: _6  and  _7
REMARK    5  A    between atoms: _7  and  _8
REMARK    6  A    between atoms: _8  and  _9
REMARK    7  A    between atoms: _18  and  _20
REMARK    8  A    between atoms: _20  and  _21
REMARK    9  A    between atoms: _20  and  _23
REMARK   10  A    between atoms: _23  and  _24
REMARK   11  A    between atoms: _27  and  _29
REMARK   12  A    between atoms: _29  and  _30
REMARK   13  A    between atoms: _29  and  _32
REMARK   14  A    between atoms: _32  and  _33
REMARK   15  A    between atoms: _36  and  _38
REMARK   16  A    between atoms: _38  and  _39
REMARK   17  A    between atoms: _38  and  _41
REMARK   18  A    between atoms: _41  and  _42
REMARK   19  A    between atoms: _45  and  _47
REMARK   20  A    between atoms: _47  and  _48
REMARK   21  A    between atoms: _47  and  _50
REMARK   22  A    between atoms: _50  and  _51
REMARK   23  A    between atoms: _54  and  _56
REMARK   24  A    between atoms: _56  and  _57
REMARK   25  A    between atoms: _59  and  _61
REMARK   26  A    between atoms: _61  and  _62
REMARK   27  A    between atoms: _65  and  _67
REMARK   28  A    between atoms: _67  and  _68
REMARK   29  A    between atoms: _67  and  _70
REMARK   30  A    between atoms: _70  and  _71
REMARK   31  A    between atoms: _74  and  _76
REMARK   32  A    between atoms: _76  and  _77
REMARK   33  A    between atoms: _76  and  _79
REMARK   34  A    between atoms: _79  and  _80
REMARK   35  A    between atoms: _83  and  _85
REMARK   36  A    between atoms: _85  and  _86
REMARK   37  A    between atoms: _85  and  _88
REMARK   38  A    between atoms: _88  and  _89
REMARK   39  A    between atoms: _92  and  _94
REMARK   40  A    between atoms: _94  and  _95
REMARK   41  A    between atoms: _94  and  _97
REMARK   42  A    between atoms: _100  and  _102
REMARK   43  A    between atoms: _102  and  _103
REMARK   44  A    between atoms: _102  and  _105
REMARK   45  A    between atoms: _105  and  _106
REMARK   46  A    between atoms: _109  and  _111
REMARK   47  A    between atoms: _111  and  _112
REMARK   48  A    between atoms: _111  and  _114
REMARK   49  A    between atoms: _114  and  _115
REMARK   50  A    between atoms: _115  and  _116
REMARK   51  A    between atoms: _119  and  _121
REMARK   52  A    between atoms: _121  and  _122
REMARK   53  A    between atoms: _121  and  _124
REMARK   54  A    between atoms: _124  and  _125
REMARK   55  A    between atoms: _125  and  _126
REMARK   56  A    between atoms: _126  and  _127
REMARK   57  A    between atoms: _127  and  _128
REMARK   58  A    between atoms: _132  and  _134
REMARK   59  A    between atoms: _134  and  _135
REMARK   60  A    between atoms: _134  and  _137
REMARK   61  A    between atoms: _137  and  _138
REMARK   62  A    between atoms: _138  and  _139
REMARK   63  A    between atoms: _141  and  _143
REMARK   64  A    between atoms: _143  and  _144
REMARK   65  A    between atoms: _143  and  _146
REMARK   66  A    between atoms: _146  and  _147
REMARK   67  A    between atoms: _150  and  _152
REMARK   68  A    between atoms: _152  and  _153
REMARK   69  A    between atoms: _155  and  _157
REMARK   70  A    between atoms: _157  and  _158
REMARK   71  A    between atoms: _160  and  _162
REMARK   72  A    between atoms: _162  and  _163
REMARK   73  A    between atoms: _162  and  _165
REMARK   74  A    between atoms: _165  and  _166
REMARK   75  A    between atoms: _169  and  _171
REMARK   76  A    between atoms: _171  and  _172
REMARK   77  A    between atoms: _174  and  _176
REMARK   78  A    between atoms: _176  and  _177
REMARK   79  A    between atoms: _179  and  _181
REMARK   80  A    between atoms: _181  and  _182
REMARK   81  A    between atoms: _181  and  _184
REMARK   82  A    between atoms: _184  and  _185
REMARK   83  A    between atoms: _191  and  _193
REMARK   84  A    between atoms: _193  and  _194
REMARK   85  A    between atoms: _193  and  _196
REMARK   86  A    between atoms: _196  and  _197
REMARK   87  A    between atoms: _200  and  _202
REMARK   88  A    between atoms: _202  and  _203
REMARK   89  A    between atoms: _202  and  _205
REMARK   90  A    between atoms: _208  and  _210
REMARK   91  A    between atoms: _210  and  _211
REMARK   92  A    between atoms: _210  and  _213
REMARK   93  A    between atoms: _213  and  _214
REMARK   94  A    between atoms: _217  and  _219
REMARK   95  A    between atoms: _219  and  _220
REMARK   96  A    between atoms: _219  and  _222
REMARK   97  A    between atoms: _222  and  _223
REMARK   98  A    between atoms: _227  and  _228
REMARK   99  A    between atoms: _233  and  _235
REMARK  100  A    between atoms: _235  and  _236
REMARK  101  A    between atoms: _235  and  _238
REMARK  102  A    between atoms: _238  and  _239
REMARK  103  A    between atoms: _242  and  _244
REMARK  104  A    between atoms: _244  and  _245
REMARK  105  A    between atoms: _244  and  _247
REMARK  106  A    between atoms: _247  and  _248
REMARK  107  A    between atoms: _253  and  _255
REMARK  108  A    between atoms: _255  and  _256
REMARK  109  A    between atoms: _255  and  _258
REMARK  110  A    between atoms: _261  and  _263
REMARK  111  A    between atoms: _263  and  _264
REMARK  112  A    between atoms: _263  and  _266
REMARK  113  A    between atoms: _266  and  _267
REMARK  114  A    between atoms: _270  and  _272
REMARK  115  A    between atoms: _272  and  _273
REMARK  116  A    between atoms: _275  and  _277
REMARK  117  A    between atoms: _277  and  _278
REMARK  118  A    between atoms: _277  and  _280
REMARK  119  A    between atoms: _280  and  _281
REMARK  120  A    between atoms: _281  and  _282
REMARK  121  A    between atoms: _282  and  _283
REMARK  122  A    between atoms: _292  and  _294
REMARK  123  A    between atoms: _294  and  _295
REMARK  124  A    between atoms: _294  and  _297
REMARK  125  A    between atoms: _297  and  _298
REMARK  126  A    between atoms: _303  and  _305
REMARK  127  A    between atoms: _305  and  _306
REMARK  128  A    between atoms: _305  and  _308
REMARK  129  A    between atoms: _308  and  _309
REMARK  130  A    between atoms: _309  and  _310
REMARK  131  A    between atoms: _310  and  _311
REMARK  132  A    between atoms: _320  and  _322
REMARK  133  A    between atoms: _322  and  _323
REMARK  134  A    between atoms: _322  and  _325
REMARK  135  A    between atoms: _325  and  _326
REMARK  136  A    between atoms: _329  and  _331
REMARK  137  A    between atoms: _331  and  _332
REMARK  138  A    between atoms: _331  and  _334
REMARK  139  A    between atoms: _334  and  _335
REMARK  140  A    between atoms: _338  and  _340
REMARK  141  A    between atoms: _340  and  _341
REMARK  142  A    between atoms: _340  and  _343
REMARK  143  A    between atoms: _343  and  _344
REMARK  144  A    between atoms: _347  and  _349
REMARK  145  A    between atoms: _349  and  _350
REMARK  146  A    between atoms: _349  and  _352
REMARK  147  A    between atoms: _352  and  _353
REMARK  148  A    between atoms: _356  and  _358
REMARK  149  A    between atoms: _358  and  _359
REMARK  150  A    between atoms: _358  and  _361
REMARK  151  A    between atoms: _361  and  _362
REMARK  152  A    between atoms: _365  and  _367
REMARK  153  A    between atoms: _367  and  _368
REMARK  154  A    between atoms: _370  and  _372
REMARK  155  A    between atoms: _372  and  _373
REMARK  156  A    between atoms: _376  and  _378
REMARK  157  A    between atoms: _378  and  _379
REMARK  158  A    between atoms: _378  and  _381
REMARK  159  A    between atoms: _381  and  _382
REMARK  160  A    between atoms: _385  and  _387
REMARK  161  A    between atoms: _387  and  _388
REMARK  162  A    between atoms: _387  and  _390
REMARK  163  A    between atoms: _390  and  _391
REMARK  164  A    between atoms: _394  and  _396
REMARK  165  A    between atoms: _396  and  _397
REMARK  166  A    between atoms: _396  and  _399
REMARK  167  A    between atoms: _399  and  _400
REMARK  168  A    between atoms: _403  and  _405
REMARK  169  A    between atoms: _405  and  _406
REMARK  170  A    between atoms: _405  and  _408
REMARK  171  A    between atoms: _411  and  _413
REMARK  172  A    between atoms: _413  and  _414
REMARK  173  A    between atoms: _413  and  _416
REMARK  174  A    between atoms: _416  and  _417
REMARK  175  A    between atoms: _417  and  _418
REMARK  176  A    between atoms: _418  and  _419
REMARK  177  A    between atoms: _419  and  _420
REMARK  178  A    between atoms: _424  and  _426
REMARK  179  A    between atoms: _426  and  _427
REMARK  180  A    between atoms: _426  and  _429
REMARK  181  A    between atoms: _429  and  _430
REMARK  182  A    between atoms: _430  and  _431
REMARK  183  A    between atoms: _433  and  _435
REMARK  184  A    between atoms: _435  and  _436
REMARK  185  A    between atoms: _435  and  _438
REMARK  186  A    between atoms: _438  and  _439
REMARK  187  A    between atoms: _442  and  _444
REMARK  188  A    between atoms: _444  and  _445
REMARK  189  A    between atoms: _447  and  _449
REMARK  190  A    between atoms: _449  and  _450
REMARK  191  A    between atoms: _452  and  _454
REMARK  192  A    between atoms: _454  and  _455
REMARK  193  A    between atoms: _454  and  _457
REMARK  194  A    between atoms: _457  and  _458
REMARK  195  A    between atoms: _461  and  _463
REMARK  196  A    between atoms: _463  and  _464
REMARK  197  A    between atoms: _466  and  _468
REMARK  198  A    between atoms: _468  and  _469
REMARK  199  A    between atoms: _471  and  _473
REMARK  200  A    between atoms: _473  and  _474
REMARK  201  A    between atoms: _473  and  _476
REMARK  202  A    between atoms: _476  and  _477
REMARK  203  A    between atoms: _483  and  _485
REMARK  204  A    between atoms: _485  and  _486
REMARK  205  A    between atoms: _485  and  _488
REMARK  206  A    between atoms: _488  and  _489
REMARK  207  A    between atoms: _492  and  _494
REMARK  208  A    between atoms: _494  and  _495
REMARK  209  A    between atoms: _494  and  _497
REMARK  210  A    between atoms: _500  and  _502
REMARK  211  A    between atoms: _502  and  _503
REMARK  212  A    between atoms: _502  and  _505
REMARK  213  A    between atoms: _505  and  _506
REMARK  214  A    between atoms: _509  and  _511
REMARK  215  A    between atoms: _511  and  _512
REMARK  216  A    between atoms: _511  and  _514
REMARK  217  A    between atoms: _514  and  _515
REMARK  218  A    between atoms: _519  and  _520
REMARK  219  A    between atoms: _525  and  _527
REMARK  220  A    between atoms: _527  and  _528
REMARK  221  A    between atoms: _527  and  _530
REMARK  222  A    between atoms: _530  and  _531
REMARK  223  A    between atoms: _534  and  _536
REMARK  224  A    between atoms: _536  and  _537
REMARK  225  A    between atoms: _536  and  _539
REMARK  226  A    between atoms: _539  and  _540
REMARK  227  A    between atoms: _545  and  _547
REMARK  228  A    between atoms: _547  and  _548
REMARK  229  A    between atoms: _547  and  _550
REMARK  230  A    between atoms: _553  and  _555
REMARK  231  A    between atoms: _555  and  _556
REMARK  232  A    between atoms: _555  and  _558
REMARK  233  A    between atoms: _558  and  _559
REMARK  234  A    between atoms: _562  and  _564
REMARK  235  A    between atoms: _564  and  _565
REMARK  236  A    between atoms: _567  and  _569
REMARK  237  A    between atoms: _569  and  _570
REMARK  238  A    between atoms: _569  and  _572
REMARK  239  A    between atoms: _572  and  _573
REMARK  240  A    between atoms: _573  and  _574
REMARK  241  A    between atoms: _574  and  _575
REMARK                            x       y       z     vdW  Elec       q    Type
REMARK                         _______ _______ _______ _____ _____    ______ ____
ROOT
ATOM      1  O   HOH     1      18.206  15.368   8.575  0.00  0.00    +0.000 OA
ENDROOT
TORSDOF 0
REMARK  Name = ../refined-set-2016/4a4q/4a4q_pocket.pdb
REMARK  241 active torsions:
REMARK  status: ('A' for Active; 'I' for Inactive)
REMARK    1  A    between atoms: _1  and  _3
REMARK    2  A    between atoms: _3  and  _4
REMARK    3  A    between atoms: _3  and  _6
REMARK    4  A    between atoms: _6  and  _7
REMARK    5  A    between atoms: _7  and  _8
REMARK    6  A    between atoms: _8  and  _9
REMARK    7  A    between atoms: _18  and  _20
REMARK    8  A    between atoms: _20  and  _21
REMARK    9  A    between atoms: _20  and  _23
REMARK   10  A    between atoms: _23  and  _24
REMARK   11  A    between atoms: _27  and  _29
REMARK   12  A    between atoms: _29  and  _30
REMARK   13  A    between atoms: _29  and  _32
REMARK   14  A    between atoms: _32  and  _33
REMARK   15  A    between atoms: _36  and  _38
REMARK   16  A    between atoms: _38  and  _39
REMARK   17  A    between atoms: _38  and  _41
REMARK   18  A    between atoms: _41  and  _42
REMARK   19  A    between atoms: _45  and  _47
REMARK   20  A    between atoms: _47  and  _48
REMARK   21  A    between atoms: _47  and  _50
REMARK   22  A    between atoms: _50  and  _51
REMARK   23  A    between atoms: _54  and  _56
REMARK   24  A    between atoms: _56  and  _57
REMARK   25  A    between atoms: _59  and  _61
REMARK   26  A    between atoms: _61  and  _62
REMARK   27  A    between atoms: _65  and  _67
REMARK   28  A    between atoms: _67  and  _68
REMARK   29  A    between atoms: _67  and  _70
REMARK   30  A    between atoms: _70  and  _71
REMARK   31  A    between atoms: _74  and  _76
REMARK   32  A    between atoms: _76  and  _77
REMARK   33  A    between atoms: _76  and  _79
REMARK   34  A    between atoms: _79  and  _80
REMARK   35  A    between atoms: _83  and  _85
REMARK   36  A    between atoms: _85  and  _86
REMARK   37  A    between atoms: _85  and  _88
REMARK   38  A    between atoms: _88  and  _89
REMARK   39  A    between atoms: _92  and  _94
REMARK   40  A    between atoms: _94  and  _95
REMARK   41  A    between atoms: _94  and  _97
REMARK   42  A    between atoms: _100  and  _102
REMARK   43  A    between atoms: _102  and  _103
REMARK   44  A    between atoms: _102  and  _105
REMARK   45  A    between atoms: _105  and  _106
REMARK   46  A    between atoms: _109  and  _111
REMARK   47  A    between atoms: _111  and  _112
REMARK   48  A    between atoms: _111  and  _114
REMARK   49  A    between atoms: _114  and  _115
REMARK   50  A    between atoms: _115  and  _116
REMARK   51  A    between atoms: _119  and  _121
REMARK   52  A    between atoms: _121  and  _122
REMARK   53  A    between atoms: _121  and  _124
REMARK   54  A    between atoms: _124  and  _125
REMARK   55  A    between atoms: _125  and  _126
REMARK   56  A    between atoms: _126  and  _127
REMARK   57  A    between atoms: _127  and  _128
REMARK   58  A    between atoms: _132  and  _134
REMARK   59  A    between atoms: _134  and  _135
REMARK   60  A    between atoms: _134  and  _137
REMARK   61  A    between atoms: _137  and  _138
REMARK   62  A    between atoms: _138  and  _139
REMARK   63  A    between atoms: _141  and  _143
REMARK   64  A    between atoms: _143  and  _144
REMARK   65  A    between atoms: _143  and  _146
REMARK   66  A    between atoms: _146  and  _147
REMARK   67  A    between atoms: _150  and  _152
REMARK   68  A    between atoms: _152  and  _153
REMARK   69  A    between atoms: _155  and  _157
REMARK   70  A    between atoms: _157  and  _158
REMARK   71  A    between atoms: _160  and  _162
REMARK   72  A    between atoms: _162  and  _163
REMARK   73  A    between atoms: _162  and  _165
REMARK   74  A    between atoms: _165  and  _166
REMARK   75  A    between atoms: _169  and  _171
REMARK   76  A    between atoms: _171  and  _172
REMARK   77  A    between atoms: _174  and  _176
REMARK   78  A    between atoms: _176  and  _177
REMARK   79  A    between atoms: _179  and  _181
REMARK   80  A    between atoms: _181  and  _182
REMARK   81  A    between atoms: _181  and  _184
REMARK   82  A    between atoms: _184  and  _185
REMARK   83  A    between atoms: _191  and  _193
REMARK   84  A    between atoms: _193  and  _194
REMARK   85  A    between atoms: _193  and  _196
REMARK   86  A    between atoms: _196  and  _197
REMARK   87  A    between atoms: _200  and  _202
REMARK   88  A    between atoms: _202  and  _203
REMARK   89  A    between atoms: _202  and  _205
REMARK   90  A    between atoms: _208  and  _210
REMARK   91  A    between atoms: _210  and  _211
REMARK   92  A    between atoms: _210  and  _213
REMARK   93  A    between atoms: _213  and  _214
REMARK   94  A    between atoms: _217  and  _219
REMARK   95  A    between atoms: _219  and  _220
REMARK   96  A    between atoms: _219  and  _222
REMARK   97  A    between atoms: _222  and  _223
REMARK   98  A    between atoms: _227  and  _228
REMARK   99  A    between atoms: _233  and  _235
REMARK  100  A    between atoms: _235  and  _236
REMARK  101  A    between atoms: _235  and  _238
REMARK  102  A    between atoms: _238  and  _239
REMARK  103  A    between atoms: _242  and  _244
REMARK  104  A    between atoms: _244  and  _245
REMARK  105  A    between atoms: _244  and  _247
REMARK  106  A    between atoms: _247  and  _248
REMARK  107  A    between atoms: _253  and  _255
REMARK  108  A    between atoms: _255  and  _256
REMARK  109  A    between atoms: _255  and  _258
REMARK  110  A    between atoms: _261  and  _263
REMARK  111  A    between atoms: _263  and  _264
REMARK  112  A    between atoms: _263  and  _266
REMARK  113  A    between atoms: _266  and  _267
REMARK  114  A    between atoms: _270  and  _272
REMARK  115  A    between atoms: _272  and  _273
REMARK  116  A    between atoms: _275  and  _277
REMARK  117  A    between atoms: _277  and  _278
REMARK  118  A    between atoms: _277  and  _280
REMARK  119  A    between atoms: _280  and  _281
REMARK  120  A    between atoms: _281  and  _282
REMARK  121  A    between atoms: _282  and  _283
REMARK  122  A    between atoms: _292  and  _294
REMARK  123  A    between atoms: _294  and  _295
REMARK  124  A    between atoms: _294  and  _297
REMARK  125  A    between atoms: _297  and  _298
REMARK  126  A    between atoms: _303  and  _305
REMARK  127  A    between atoms: _305  and  _306
REMARK  128  A    between atoms: _305  and  _308
REMARK  129  A    between atoms: _308  and  _309
REMARK  130  A    between atoms: _309  and  _310
REMARK  131  A    between atoms: _310  and  _311
REMARK  132  A    between atoms: _320  and  _322
REMARK  133  A    between atoms: _322  and  _323
REMARK  134  A    between atoms: _322  and  _325
REMARK  135  A    between atoms: _325  and  _326
REMARK  136  A    between atoms: _329  and  _331
REMARK  137  A    between atoms: _331  and  _332
REMARK  138  A    between atoms: _331  and  _334
REMARK  139  A    between atoms: _334  and  _335
REMARK  140  A    between atoms: _338  and  _340
REMARK  141  A    between atoms: _340  and  _341
REMARK  142  A    between atoms: _340  and  _343
REMARK  143  A    between atoms: _343  and  _344
REMARK  144  A    between atoms: _347  and  _349
REMARK  145  A    between atoms: _349  and  _350
REMARK  146  A    between atoms: _349  and  _352
REMARK  147  A    between atoms: _352  and  _353
REMARK  148  A    between atoms: _356  and  _358
REMARK  149  A    between atoms: _358  and  _359
REMARK  150  A    between atoms: _358  and  _361
REMARK  151  A    between atoms: _361  and  _362
REMARK  152  A    between atoms: _365  and  _367
REMARK  153  A    between atoms: _367  and  _368
REMARK  154  A    between atoms: _370  and  _372
REMARK  155  A    between atoms: _372  and  _373
REMARK  156  A    between atoms: _376  and  _378
REMARK  157  A    between atoms: _378  and  _379
REMARK  158  A    between atoms: _378  and  _381
REMARK  159  A    between atoms: _381  and  _382
REMARK  160  A    between atoms: _385  and  _387
REMARK  161  A    between atoms: _387  and  _388
REMARK  162  A    between atoms: _387  and  _390
REMARK  163  A    between atoms: _390  and  _391
REMARK  164  A    between atoms: _394  and  _396
REMARK  165  A    between atoms: _396  and  _397
REMARK  166  A    between atoms: _396  and  _399
REMARK  167  A    between atoms: _399  and  _400
REMARK  168  A    between atoms: _403  and  _405
REMARK  169  A    between atoms: _405  and  _406
REMARK  170  A    between atoms: _405  and  _408
REMARK  171  A    between atoms: _411  and  _413
REMARK  172  A    between atoms: _413  and  _414
REMARK  173  A    between atoms: _413  and  _416
REMARK  174  A    between atoms: _416  and  _417
REMARK  175  A    between atoms: _417  and  _418
REMARK  176  A    between atoms: _418  and  _419
REMARK  177  A    between atoms: _419  and  _420
REMARK  178  A    between atoms: _424  and  _426
REMARK  179  A    between atoms: _426  and  _427
REMARK  180  A    between atoms: _426  and  _429
REMARK  181  A    between atoms: _429  and  _430
REMARK  182  A    between atoms: _430  and  _431
REMARK  183  A    between atoms: _433  and  _435
REMARK  184  A    between atoms: _435  and  _436
REMARK  185  A    between atoms: _435  and  _438
REMARK  186  A    between atoms: _438  and  _439
REMARK  187  A    between atoms: _442  and  _444
REMARK  188  A    between atoms: _444  and  _445
REMARK  189  A    between atoms: _447  and  _449
REMARK  190  A    between atoms: _449  and  _450
REMARK  191  A    between atoms: _452  and  _454
REMARK  192  A    between atoms: _454  and  _455
REMARK  193  A    between atoms: _454  and  _457
REMARK  194  A    between atoms: _457  and  _458
REMARK  195  A    between atoms: _461  and  _463
REMARK  196  A    between atoms: _463  and  _464
REMARK  197  A    between atoms: _466  and  _468
REMARK  198  A    between atoms: _468  and  _469
REMARK  199  A    between atoms: _471  and  _473
REMARK  200  A    between atoms: _473  and  _474
REMARK  201  A    between atoms: _473  and  _476
REMARK  202  A    between atoms: _476  and  _477
REMARK  203  A    between atoms: _483  and  _485
REMARK  204  A    between atoms: _485  and  _486
REMARK  205  A    between atoms: _485  and  _488
REMARK  206  A    between atoms: _488  and  _489
REMARK  207  A    between atoms: _492  and  _494
REMARK  208  A    between atoms: _494  and  _495
REMARK  209  A    between atoms: _494  and  _497
REMARK  210  A    between atoms: _500  and  _502
REMARK  211  A    between atoms: _502  and  _503
REMARK  212  A    between atoms: _502  and  _505
REMARK  213  A    between atoms: _505  and  _506
REMARK  214  A    between atoms: _509  and  _511
REMARK  215  A    between atoms: _511  and  _512
REMARK  216  A    between atoms: _511  and  _514
REMARK  217  A    between atoms: _514  and  _515
REMARK  218  A    between atoms: _519  and  _520
REMARK  219  A    between atoms: _525  and  _527
REMARK  220  A    between atoms: _527  and  _528
REMARK  221  A    between atoms: _527  and  _530
REMARK  222  A    between atoms: _530  and  _531
REMARK  223  A    between atoms: _534  and  _536
REMARK  224  A    between atoms: _536  and  _537
REMARK  225  A    between atoms: _536  and  _539
REMARK  226  A    between atoms: _539  and  _540
REMARK  227  A    between atoms: _545  and  _547
REMARK  228  A    between atoms: _547  and  _548
REMARK  229  A    between atoms: _547  and  _550
REMARK  230  A    between atoms: _553  and  _555
REMARK  231  A    between atoms: _555  and  _556
REMARK  232  A    between atoms: _555  and  _558
REMARK  233  A    between atoms: _558  and  _559
REMARK  234  A    between atoms: _562  and  _564
REMARK  235  A    between atoms: _564  and  _565
REMARK  236  A    between atoms: _567  and  _569
REMARK  237  A    between atoms: _569  and  _570
REMARK  238  A    between atoms: _569  and  _572
REMARK  239  A    between atoms: _572  and  _573
REMARK  240  A    between atoms: _573  and  _574
REMARK  241  A    between atoms: _574  and  _575
REMARK                            x       y       z     vdW  Elec       q    Type
REMARK                         _______ _______ _______ _____ _____    ______ ____
ROOT
ATOM      1  O   HOH     1      20.606  21.812   6.127  0.00  0.00    +0.000 OA
ENDROOT
TORSDOF 0
REMARK  Name = ../refined-set-2016/4a4q/4a4q_pocket.pdb
REMARK  241 active torsions:
REMARK  status: ('A' for Active; 'I' for Inactive)
REMARK    1  A    between atoms: _1  and  _3
REMARK    2  A    between atoms: _3  and  _4
REMARK    3  A    between atoms: _3  and  _6
REMARK    4  A    between atoms: _6  and  _7
REMARK    5  A    between atoms: _7  and  _8
REMARK    6  A    between atoms: _8  and  _9
REMARK    7  A    between atoms: _18  and  _20
REMARK    8  A    between atoms: _20  and  _21
REMARK    9  A    between atoms: _20  and  _23
REMARK   10  A    between atoms: _23  and  _24
REMARK   11  A    between atoms: _27  and  _29
REMARK   12  A    between atoms: _29  and  _30
REMARK   13  A    between atoms: _29  and  _32
REMARK   14  A    between atoms: _32  and  _33
REMARK   15  A    between atoms: _36  and  _38
REMARK   16  A    between atoms: _38  and  _39
REMARK   17  A    between atoms: _38  and  _41
REMARK   18  A    between atoms: _41  and  _42
REMARK   19  A    between atoms: _45  and  _47
REMARK   20  A    between atoms: _47  and  _48
REMARK   21  A    between atoms: _47  and  _50
REMARK   22  A    between atoms: _50  and  _51
REMARK   23  A    between atoms: _54  and  _56
REMARK   24  A    between atoms: _56  and  _57
REMARK   25  A    between atoms: _59  and  _61
REMARK   26  A    between atoms: _61  and  _62
REMARK   27  A    between atoms: _65  and  _67
REMARK   28  A    between atoms: _67  and  _68
REMARK   29  A    between atoms: _67  and  _70
REMARK   30  A    between atoms: _70  and  _71
REMARK   31  A    between atoms: _74  and  _76
REMARK   32  A    between atoms: _76  and  _77
REMARK   33  A    between atoms: _76  and  _79
REMARK   34  A    between atoms: _79  and  _80
REMARK   35  A    between atoms: _83  and  _85
REMARK   36  A    between atoms: _85  and  _86
REMARK   37  A    between atoms: _85  and  _88
REMARK   38  A    between atoms: _88  and  _89
REMARK   39  A    between atoms: _92  and  _94
REMARK   40  A    between atoms: _94  and  _95
REMARK   41  A    between atoms: _94  and  _97
REMARK   42  A    between atoms: _100  and  _102
REMARK   43  A    between atoms: _102  and  _103
REMARK   44  A    between atoms: _102  and  _105
REMARK   45  A    between atoms: _105  and  _106
REMARK   46  A    between atoms: _109  and  _111
REMARK   47  A    between atoms: _111  and  _112
REMARK   48  A    between atoms: _111  and  _114
REMARK   49  A    between atoms: _114  and  _115
REMARK   50  A    between atoms: _115  and  _116
REMARK   51  A    between atoms: _119  and  _121
REMARK   52  A    between atoms: _121  and  _122
REMARK   53  A    between atoms: _121  and  _124
REMARK   54  A    between atoms: _124  and  _125
REMARK   55  A    between atoms: _125  and  _126
REMARK   56  A    between atoms: _126  and  _127
REMARK   57  A    between atoms: _127  and  _128
REMARK   58  A    between atoms: _132  and  _134
REMARK   59  A    between atoms: _134  and  _135
REMARK   60  A    between atoms: _134  and  _137
REMARK   61  A    between atoms: _137  and  _138
REMARK   62  A    between atoms: _138  and  _139
REMARK   63  A    between atoms: _141  and  _143
REMARK   64  A    between atoms: _143  and  _144
REMARK   65  A    between atoms: _143  and  _146
REMARK   66  A    between atoms: _146  and  _147
REMARK   67  A    between atoms: _150  and  _152
REMARK   68  A    between atoms: _152  and  _153
REMARK   69  A    between atoms: _155  and  _157
REMARK   70  A    between atoms: _157  and  _158
REMARK   71  A    between atoms: _160  and  _162
REMARK   72  A    between atoms: _162  and  _163
REMARK   73  A    between atoms: _162  and  _165
REMARK   74  A    between atoms: _165  and  _166
REMARK   75  A    between atoms: _169  and  _171
REMARK   76  A    between atoms: _171  and  _172
REMARK   77  A    between atoms: _174  and  _176
REMARK   78  A    between atoms: _176  and  _177
REMARK   79  A    between atoms: _179  and  _181
REMARK   80  A    between atoms: _181  and  _182
REMARK   81  A    between atoms: _181  and  _184
REMARK   82  A    between atoms: _184  and  _185
REMARK   83  A    between atoms: _191  and  _193
REMARK   84  A    between atoms: _193  and  _194
REMARK   85  A    between atoms: _193  and  _196
REMARK   86  A    between atoms: _196  and  _197
REMARK   87  A    between atoms: _200  and  _202
REMARK   88  A    between atoms: _202  and  _203
REMARK   89  A    between atoms: _202  and  _205
REMARK   90  A    between atoms: _208  and  _210
REMARK   91  A    between atoms: _210  and  _211
REMARK   92  A    between atoms: _210  and  _213
REMARK   93  A    between atoms: _213  and  _214
REMARK   94  A    between atoms: _217  and  _219
REMARK   95  A    between atoms: _219  and  _220
REMARK   96  A    between atoms: _219  and  _222
REMARK   97  A    between atoms: _222  and  _223
REMARK   98  A    between atoms: _227  and  _228
REMARK   99  A    between atoms: _233  and  _235
REMARK  100  A    between atoms: _235  and  _236
REMARK  101  A    between atoms: _235  and  _238
REMARK  102  A    between atoms: _238  and  _239
REMARK  103  A    between atoms: _242  and  _244
REMARK  104  A    between atoms: _244  and  _245
REMARK  105  A    between atoms: _244  and  _247
REMARK  106  A    between atoms: _247  and  _248
REMARK  107  A    between atoms: _253  and  _255
REMARK  108  A    between atoms: _255  and  _256
REMARK  109  A    between atoms: _255  and  _258
REMARK  110  A    between atoms: _261  and  _263
REMARK  111  A    between atoms: _263  and  _264
REMARK  112  A    between atoms: _263  and  _266
REMARK  113  A    between atoms: _266  and  _267
REMARK  114  A    between atoms: _270  and  _272
REMARK  115  A    between atoms: _272  and  _273
REMARK  116  A    between atoms: _275  and  _277
REMARK  117  A    between atoms: _277  and  _278
REMARK  118  A    between atoms: _277  and  _280
REMARK  119  A    between atoms: _280  and  _281
REMARK  120  A    between atoms: _281  and  _282
REMARK  121  A    between atoms: _282  and  _283
REMARK  122  A    between atoms: _292  and  _294
REMARK  123  A    between atoms: _294  and  _295
REMARK  124  A    between atoms: _294  and  _297
REMARK  125  A    between atoms: _297  and  _298
REMARK  126  A    between atoms: _303  and  _305
REMARK  127  A    between atoms: _305  and  _306
REMARK  128  A    between atoms: _305  and  _308
REMARK  129  A    between atoms: _308  and  _309
REMARK  130  A    between atoms: _309  and  _310
REMARK  131  A    between atoms: _310  and  _311
REMARK  132  A    between atoms: _320  and  _322
REMARK  133  A    between atoms: _322  and  _323
REMARK  134  A    between atoms: _322  and  _325
REMARK  135  A    between atoms: _325  and  _326
REMARK  136  A    between atoms: _329  and  _331
REMARK  137  A    between atoms: _331  and  _332
REMARK  138  A    between atoms: _331  and  _334
REMARK  139  A    between atoms: _334  and  _335
REMARK  140  A    between atoms: _338  and  _340
REMARK  141  A    between atoms: _340  and  _341
REMARK  142  A    between atoms: _340  and  _343
REMARK  143  A    between atoms: _343  and  _344
REMARK  144  A    between atoms: _347  and  _349
REMARK  145  A    between atoms: _349  and  _350
REMARK  146  A    between atoms: _349  and  _352
REMARK  147  A    between atoms: _352  and  _353
REMARK  148  A    between atoms: _356  and  _358
REMARK  149  A    between atoms: _358  and  _359
REMARK  150  A    between atoms: _358  and  _361
REMARK  151  A    between atoms: _361  and  _362
REMARK  152  A    between atoms: _365  and  _367
REMARK  153  A    between atoms: _367  and  _368
REMARK  154  A    between atoms: _370  and  _372
REMARK  155  A    between atoms: _372  and  _373
REMARK  156  A    between atoms: _376  and  _378
REMARK  157  A    between atoms: _378  and  _379
REMARK  158  A    between atoms: _378  and  _381
REMARK  159  A    between atoms: _381  and  _382
REMARK  160  A    between atoms: _385  and  _387
REMARK  161  A    between atoms: _387  and  _388
REMARK  162  A    between atoms: _387  and  _390
REMARK  163  A    between atoms: _390  and  _391
REMARK  164  A    between atoms: _394  and  _396
REMARK  165  A    between atoms: _396  and  _397
REMARK  166  A    between atoms: _396  and  _399
REMARK  167  A    between atoms: _399  and  _400
REMARK  168  A    between atoms: _403  and  _405
REMARK  169  A    between atoms: _405  and  _406
REMARK  170  A    between atoms: _405  and  _408
REMARK  171  A    between atoms: _411  and  _413
REMARK  172  A    between atoms: _413  and  _414
REMARK  173  A    between atoms: _413  and  _416
REMARK  174  A    between atoms: _416  and  _417
REMARK  175  A    between atoms: _417  and  _418
REMARK  176  A    between atoms: _418  and  _419
REMARK  177  A    between atoms: _419  and  _420
REMARK  178  A    between atoms: _424  and  _426
REMARK  179  A    between atoms: _426  and  _427
REMARK  180  A    between atoms: _426  and  _429
REMARK  181  A    between atoms: _429  and  _430
REMARK  182  A    between atoms: _430  and  _431
REMARK  183  A    between atoms: _433  and  _435
REMARK  184  A    between atoms: _435  and  _436
REMARK  185  A    between atoms: _435  and  _438
REMARK  186  A    between atoms: _438  and  _439
REMARK  187  A    between atoms: _442  and  _444
REMARK  188  A    between atoms: _444  and  _445
REMARK  189  A    between atoms: _447  and  _449
REMARK  190  A    between atoms: _449  and  _450
REMARK  191  A    between atoms: _452  and  _454
REMARK  192  A    between atoms: _454  and  _455
REMARK  193  A    between atoms: _454  and  _457
REMARK  194  A    between atoms: _457  and  _458
REMARK  195  A    between atoms: _461  and  _463
REMARK  196  A    between atoms: _463  and  _464
REMARK  197  A    between atoms: _466  and  _468
REMARK  198  A    between atoms: _468  and  _469
REMARK  199  A    between atoms: _471  and  _473
REMARK  200  A    between atoms: _473  and  _474
REMARK  201  A    between atoms: _473  and  _476
REMARK  202  A    between atoms: _476  and  _477
REMARK  203  A    between atoms: _483  and  _485
REMARK  204  A    between atoms: _485  and  _486
REMARK  205  A    between atoms: _485  and  _488
REMARK  206  A    between atoms: _488  and  _489
REMARK  207  A    between atoms: _492  and  _494
REMARK  208  A    between atoms: _494  and  _495
REMARK  209  A    between atoms: _494  and  _497
REMARK  210  A    between atoms: _500  and  _502
REMARK  211  A    between atoms: _502  and  _503
REMARK  212  A    between atoms: _502  and  _505
REMARK  213  A    between atoms: _505  and  _506
REMARK  214  A    between atoms: _509  and  _511
REMARK  215  A    between atoms: _511  and  _512
REMARK  216  A    between atoms: _511  and  _514
REMARK  217  A    between atoms: _514  and  _515
REMARK  218  A    between atoms: _519  and  _520
REMARK  219  A    between atoms: _525  and  _527
REMARK  220  A    between atoms: _527  and  _528
REMARK  221  A    between atoms: _527  and  _530
REMARK  222  A    between atoms: _530  and  _531
REMARK  223  A    between atoms: _534  and  _536
REMARK  224  A    between atoms: _536  and  _537
REMARK  225  A    between atoms: _536  and  _539
REMARK  226  A    between atoms: _539  and  _540
REMARK  227  A    between atoms: _545  and  _547
REMARK  228  A    between atoms: _547  and  _548
REMARK  229  A    between atoms: _547  and  _550
REMARK  230  A    between atoms: _553  and  _555
REMARK  231  A    between atoms: _555  and  _556
REMARK  232  A    between atoms: _555  and  _558
REMARK  233  A    between atoms: _558  and  _559
REMARK  234  A    between atoms: _562  and  _564
REMARK  235  A    between atoms: _564  and  _565
REMARK  236  A    between atoms: _567  and  _569
REMARK  237  A    between atoms: _569  and  _570
REMARK  238  A    between atoms: _569  and  _572
REMARK  239  A    between atoms: _572  and  _573
REMARK  240  A    between atoms: _573  and  _574
REMARK  241  A    between atoms: _574  and  _575
REMARK                            x       y       z     vdW  Elec       q    Type
REMARK                         _______ _______ _______ _____ _____    ______ ____
ROOT
ATOM      1  O   HOH     1       5.162  28.914  -3.113  0.00  0.00    +0.000 OA
ENDROOT
TORSDOF 0
REMARK  Name = ../refined-set-2016/4a4q/4a4q_pocket.pdb
REMARK  241 active torsions:
REMARK  status: ('A' for Active; 'I' for Inactive)
REMARK    1  A    between atoms: _1  and  _3
REMARK    2  A    between atoms: _3  and  _4
REMARK    3  A    between atoms: _3  and  _6
REMARK    4  A    between atoms: _6  and  _7
REMARK    5  A    between atoms: _7  and  _8
REMARK    6  A    between atoms: _8  and  _9
REMARK    7  A    between atoms: _18  and  _20
REMARK    8  A    between atoms: _20  and  _21
REMARK    9  A    between atoms: _20  and  _23
REMARK   10  A    between atoms: _23  and  _24
REMARK   11  A    between atoms: _27  and  _29
REMARK   12  A    between atoms: _29  and  _30
REMARK   13  A    between atoms: _29  and  _32
REMARK   14  A    between atoms: _32  and  _33
REMARK   15  A    between atoms: _36  and  _38
REMARK   16  A    between atoms: _38  and  _39
REMARK   17  A    between atoms: _38  and  _41
REMARK   18  A    between atoms: _41  and  _42
REMARK   19  A    between atoms: _45  and  _47
REMARK   20  A    between atoms: _47  and  _48
REMARK   21  A    between atoms: _47  and  _50
REMARK   22  A    between atoms: _50  and  _51
REMARK   23  A    between atoms: _54  and  _56
REMARK   24  A    between atoms: _56  and  _57
REMARK   25  A    between atoms: _59  and  _61
REMARK   26  A    between atoms: _61  and  _62
REMARK   27  A    between atoms: _65  and  _67
REMARK   28  A    between atoms: _67  and  _68
REMARK   29  A    between atoms: _67  and  _70
REMARK   30  A    between atoms: _70  and  _71
REMARK   31  A    between atoms: _74  and  _76
REMARK   32  A    between atoms: _76  and  _77
REMARK   33  A    between atoms: _76  and  _79
REMARK   34  A    between atoms: _79  and  _80
REMARK   35  A    between atoms: _83  and  _85
REMARK   36  A    between atoms: _85  and  _86
REMARK   37  A    between atoms: _85  and  _88
REMARK   38  A    between atoms: _88  and  _89
REMARK   39  A    between atoms: _92  and  _94
REMARK   40  A    between atoms: _94  and  _95
REMARK   41  A    between atoms: _94  and  _97
REMARK   42  A    between atoms: _100  and  _102
REMARK   43  A    between atoms: _102  and  _103
REMARK   44  A    between atoms: _102  and  _105
REMARK   45  A    between atoms: _105  and  _106
REMARK   46  A    between atoms: _109  and  _111
REMARK   47  A    between atoms: _111  and  _112
REMARK   48  A    between atoms: _111  and  _114
REMARK   49  A    between atoms: _114  and  _115
REMARK   50  A    between atoms: _115  and  _116
REMARK   51  A    between atoms: _119  and  _121
REMARK   52  A    between atoms: _121  and  _122
REMARK   53  A    between atoms: _121  and  _124
REMARK   54  A    between atoms: _124  and  _125
REMARK   55  A    between atoms: _125  and  _126
REMARK   56  A    between atoms: _126  and  _127
REMARK   57  A    between atoms: _127  and  _128
REMARK   58  A    between atoms: _132  and  _134
REMARK   59  A    between atoms: _134  and  _135
REMARK   60  A    between atoms: _134  and  _137
REMARK   61  A    between atoms: _137  and  _138
REMARK   62  A    between atoms: _138  and  _139
REMARK   63  A    between atoms: _141  and  _143
REMARK   64  A    between atoms: _143  and  _144
REMARK   65  A    between atoms: _143  and  _146
REMARK   66  A    between atoms: _146  and  _147
REMARK   67  A    between atoms: _150  and  _152
REMARK   68  A    between atoms: _152  and  _153
REMARK   69  A    between atoms: _155  and  _157
REMARK   70  A    between atoms: _157  and  _158
REMARK   71  A    between atoms: _160  and  _162
REMARK   72  A    between atoms: _162  and  _163
REMARK   73  A    between atoms: _162  and  _165
REMARK   74  A    between atoms: _165  and  _166
REMARK   75  A    between atoms: _169  and  _171
REMARK   76  A    between atoms: _171  and  _172
REMARK   77  A    between atoms: _174  and  _176
REMARK   78  A    between atoms: _176  and  _177
REMARK   79  A    between atoms: _179  and  _181
REMARK   80  A    between atoms: _181  and  _182
REMARK   81  A    between atoms: _181  and  _184
REMARK   82  A    between atoms: _184  and  _185
REMARK   83  A    between atoms: _191  and  _193
REMARK   84  A    between atoms: _193  and  _194
REMARK   85  A    between atoms: _193  and  _196
REMARK   86  A    between atoms: _196  and  _197
REMARK   87  A    between atoms: _200  and  _202
REMARK   88  A    between atoms: _202  and  _203
REMARK   89  A    between atoms: _202  and  _205
REMARK   90  A    between atoms: _208  and  _210
REMARK   91  A    between atoms: _210  and  _211
REMARK   92  A    between atoms: _210  and  _213
REMARK   93  A    between atoms: _213  and  _214
REMARK   94  A    between atoms: _217  and  _219
REMARK   95  A    between atoms: _219  and  _220
REMARK   96  A    between atoms: _219  and  _222
REMARK   97  A    between atoms: _222  and  _223
REMARK   98  A    between atoms: _227  and  _228
REMARK   99  A    between atoms: _233  and  _235
REMARK  100  A    between atoms: _235  and  _236
REMARK  101  A    between atoms: _235  and  _238
REMARK  102  A    between atoms: _238  and  _239
REMARK  103  A    between atoms: _242  and  _244
REMARK  104  A    between atoms: _244  and  _245
REMARK  105  A    between atoms: _244  and  _247
REMARK  106  A    between atoms: _247  and  _248
REMARK  107  A    between atoms: _253  and  _255
REMARK  108  A    between atoms: _255  and  _256
REMARK  109  A    between atoms: _255  and  _258
REMARK  110  A    between atoms: _261  and  _263
REMARK  111  A    between atoms: _263  and  _264
REMARK  112  A    between atoms: _263  and  _266
REMARK  113  A    between atoms: _266  and  _267
REMARK  114  A    between atoms: _270  and  _272
REMARK  115  A    between atoms: _272  and  _273
REMARK  116  A    between atoms: _275  and  _277
REMARK  117  A    between atoms: _277  and  _278
REMARK  118  A    between atoms: _277  and  _280
REMARK  119  A    between atoms: _280  and  _281
REMARK  120  A    between atoms: _281  and  _282
REMARK  121  A    between atoms: _282  and  _283
REMARK  122  A    between atoms: _292  and  _294
REMARK  123  A    between atoms: _294  and  _295
REMARK  124  A    between atoms: _294  and  _297
REMARK  125  A    between atoms: _297  and  _298
REMARK  126  A    between atoms: _303  and  _305
REMARK  127  A    between atoms: _305  and  _306
REMARK  128  A    between atoms: _305  and  _308
REMARK  129  A    between atoms: _308  and  _309
REMARK  130  A    between atoms: _309  and  _310
REMARK  131  A    between atoms: _310  and  _311
REMARK  132  A    between atoms: _320  and  _322
REMARK  133  A    between atoms: _322  and  _323
REMARK  134  A    between atoms: _322  and  _325
REMARK  135  A    between atoms: _325  and  _326
REMARK  136  A    between atoms: _329  and  _331
REMARK  137  A    between atoms: _331  and  _332
REMARK  138  A    between atoms: _331  and  _334
REMARK  139  A    between atoms: _334  and  _335
REMARK  140  A    between atoms: _338  and  _340
REMARK  141  A    between atoms: _340  and  _341
REMARK  142  A    between atoms: _340  and  _343
REMARK  143  A    between atoms: _343  and  _344
REMARK  144  A    between atoms: _347  and  _349
REMARK  145  A    between atoms: _349  and  _350
REMARK  146  A    between atoms: _349  and  _352
REMARK  147  A    between atoms: _352  and  _353
REMARK  148  A    between atoms: _356  and  _358
REMARK  149  A    between atoms: _358  and  _359
REMARK  150  A    between atoms: _358  and  _361
REMARK  151  A    between atoms: _361  and  _362
REMARK  152  A    between atoms: _365  and  _367
REMARK  153  A    between atoms: _367  and  _368
REMARK  154  A    between atoms: _370  and  _372
REMARK  155  A    between atoms: _372  and  _373
REMARK  156  A    between atoms: _376  and  _378
REMARK  157  A    between atoms: _378  and  _379
REMARK  158  A    between atoms: _378  and  _381
REMARK  159  A    between atoms: _381  and  _382
REMARK  160  A    between atoms: _385  and  _387
REMARK  161  A    between atoms: _387  and  _388
REMARK  162  A    between atoms: _387  and  _390
REMARK  163  A    between atoms: _390  and  _391
REMARK  164  A    between atoms: _394  and  _396
REMARK  165  A    between atoms: _396  and  _397
REMARK  166  A    between atoms: _396  and  _399
REMARK  167  A    between atoms: _399  and  _400
REMARK  168  A    between atoms: _403  and  _405
REMARK  169  A    between atoms: _405  and  _406
REMARK  170  A    between atoms: _405  and  _408
REMARK  171  A    between atoms: _411  and  _413
REMARK  172  A    between atoms: _413  and  _414
REMARK  173  A    between atoms: _413  and  _416
REMARK  174  A    between atoms: _416  and  _417
REMARK  175  A    between atoms: _417  and  _418
REMARK  176  A    between atoms: _418  and  _419
REMARK  177  A    between atoms: _419  and  _420
REMARK  178  A    between atoms: _424  and  _426
REMARK  179  A    between atoms: _426  and  _427
REMARK  180  A    between atoms: _426  and  _429
REMARK  181  A    between atoms: _429  and  _430
REMARK  182  A    between atoms: _430  and  _431
REMARK  183  A    between atoms: _433  and  _435
REMARK  184  A    between atoms: _435  and  _436
REMARK  185  A    between atoms: _435  and  _438
REMARK  186  A    between atoms: _438  and  _439
REMARK  187  A    between atoms: _442  and  _444
REMARK  188  A    between atoms: _444  and  _445
REMARK  189  A    between atoms: _447  and  _449
REMARK  190  A    between atoms: _449  and  _450
REMARK  191  A    between atoms: _452  and  _454
REMARK  192  A    between atoms: _454  and  _455
REMARK  193  A    between atoms: _454  and  _457
REMARK  194  A    between atoms: _457  and  _458
REMARK  195  A    between atoms: _461  and  _463
REMARK  196  A    between atoms: _463  and  _464
REMARK  197  A    between atoms: _466  and  _468
REMARK  198  A    between atoms: _468  and  _469
REMARK  199  A    between atoms: _471  and  _473
REMARK  200  A    between atoms: _473  and  _474
REMARK  201  A    between atoms: _473  and  _476
REMARK  202  A    between atoms: _476  and  _477
REMARK  203  A    between atoms: _483  and  _485
REMARK  204  A    between atoms: _485  and  _486
REMARK  205  A    between atoms: _485  and  _488
REMARK  206  A    between atoms: _488  and  _489
REMARK  207  A    between atoms: _492  and  _494
REMARK  208  A    between atoms: _494  and  _495
REMARK  209  A    between atoms: _494  and  _497
REMARK  210  A    between atoms: _500  and  _502
REMARK  211  A    between atoms: _502  and  _503
REMARK  212  A    between atoms: _502  and  _505
REMARK  213  A    between atoms: _505  and  _506
REMARK  214  A    between atoms: _509  and  _511
REMARK  215  A    between atoms: _511  and  _512
REMARK  216  A    between atoms: _511  and  _514
REMARK  217  A    between atoms: _514  and  _515
REMARK  218  A    between atoms: _519  and  _520
REMARK  219  A    between atoms: _525  and  _527
REMARK  220  A    between atoms: _527  and  _528
REMARK  221  A    between atoms: _527  and  _530
REMARK  222  A    between atoms: _530  and  _531
REMARK  223  A    between atoms: _534  and  _536
REMARK  224  A    between atoms: _536  and  _537
REMARK  225  A    between atoms: _536  and  _539
REMARK  226  A    between atoms: _539  and  _540
REMARK  227  A    between atoms: _545  and  _547
REMARK  228  A    between atoms: _547  and  _548
REMARK  229  A    between atoms: _547  and  _550
REMARK  230  A    between atoms: _553  and  _555
REMARK  231  A    between atoms: _555  and  _556
REMARK  232  A    between atoms: _555  and  _558
REMARK  233  A    between atoms: _558  and  _559
REMARK  234  A    between atoms: _562  and  _564
REMARK  235  A    between atoms: _564  and  _565
REMARK  236  A    between atoms: _567  and  _569
REMARK  237  A    between atoms: _569  and  _570
REMARK  238  A    between atoms: _569  and  _572
REMARK  239  A    between atoms: _572  and  _573
REMARK  240  A    between atoms: _573  and  _574
REMARK  241  A    between atoms: _574  and  _575
REMARK                            x       y       z     vdW  Elec       q    Type
REMARK                         _______ _______ _______ _____ _____    ______ ____
ROOT
ATOM      1  O   HOH     1      21.792  23.933   4.727  0.00  0.00    +0.000 OA
ENDROOT
TORSDOF 0
REMARK  Name = ../refined-set-2016/4a4q/4a4q_pocket.pdb
REMARK  241 active torsions:
REMARK  status: ('A' for Active; 'I' for Inactive)
REMARK    1  A    between atoms: _1  and  _3
REMARK    2  A    between atoms: _3  and  _4
REMARK    3  A    between atoms: _3  and  _6
REMARK    4  A    between atoms: _6  and  _7
REMARK    5  A    between atoms: _7  and  _8
REMARK    6  A    between atoms: _8  and  _9
REMARK    7  A    between atoms: _18  and  _20
REMARK    8  A    between atoms: _20  and  _21
REMARK    9  A    between atoms: _20  and  _23
REMARK   10  A    between atoms: _23  and  _24
REMARK   11  A    between atoms: _27  and  _29
REMARK   12  A    between atoms: _29  and  _30
REMARK   13  A    between atoms: _29  and  _32
REMARK   14  A    between atoms: _32  and  _33
REMARK   15  A    between atoms: _36  and  _38
REMARK   16  A    between atoms: _38  and  _39
REMARK   17  A    between atoms: _38  and  _41
REMARK   18  A    between atoms: _41  and  _42
REMARK   19  A    between atoms: _45  and  _47
REMARK   20  A    between atoms: _47  and  _48
REMARK   21  A    between atoms: _47  and  _50
REMARK   22  A    between atoms: _50  and  _51
REMARK   23  A    between atoms: _54  and  _56
REMARK   24  A    between atoms: _56  and  _57
REMARK   25  A    between atoms: _59  and  _61
REMARK   26  A    between atoms: _61  and  _62
REMARK   27  A    between atoms: _65  and  _67
REMARK   28  A    between atoms: _67  and  _68
REMARK   29  A    between atoms: _67  and  _70
REMARK   30  A    between atoms: _70  and  _71
REMARK   31  A    between atoms: _74  and  _76
REMARK   32  A    between atoms: _76  and  _77
REMARK   33  A    between atoms: _76  and  _79
REMARK   34  A    between atoms: _79  and  _80
REMARK   35  A    between atoms: _83  and  _85
REMARK   36  A    between atoms: _85  and  _86
REMARK   37  A    between atoms: _85  and  _88
REMARK   38  A    between atoms: _88  and  _89
REMARK   39  A    between atoms: _92  and  _94
REMARK   40  A    between atoms: _94  and  _95
REMARK   41  A    between atoms: _94  and  _97
REMARK   42  A    between atoms: _100  and  _102
REMARK   43  A    between atoms: _102  and  _103
REMARK   44  A    between atoms: _102  and  _105
REMARK   45  A    between atoms: _105  and  _106
REMARK   46  A    between atoms: _109  and  _111
REMARK   47  A    between atoms: _111  and  _112
REMARK   48  A    between atoms: _111  and  _114
REMARK   49  A    between atoms: _114  and  _115
REMARK   50  A    between atoms: _115  and  _116
REMARK   51  A    between atoms: _119  and  _121
REMARK   52  A    between atoms: _121  and  _122
REMARK   53  A    between atoms: _121  and  _124
REMARK   54  A    between atoms: _124  and  _125
REMARK   55  A    between atoms: _125  and  _126
REMARK   56  A    between atoms: _126  and  _127
REMARK   57  A    between atoms: _127  and  _128
REMARK   58  A    between atoms: _132  and  _134
REMARK   59  A    between atoms: _134  and  _135
REMARK   60  A    between atoms: _134  and  _137
REMARK   61  A    between atoms: _137  and  _138
REMARK   62  A    between atoms: _138  and  _139
REMARK   63  A    between atoms: _141  and  _143
REMARK   64  A    between atoms: _143  and  _144
REMARK   65  A    between atoms: _143  and  _146
REMARK   66  A    between atoms: _146  and  _147
REMARK   67  A    between atoms: _150  and  _152
REMARK   68  A    between atoms: _152  and  _153
REMARK   69  A    between atoms: _155  and  _157
REMARK   70  A    between atoms: _157  and  _158
REMARK   71  A    between atoms: _160  and  _162
REMARK   72  A    between atoms: _162  and  _163
REMARK   73  A    between atoms: _162  and  _165
REMARK   74  A    between atoms: _165  and  _166
REMARK   75  A    between atoms: _169  and  _171
REMARK   76  A    between atoms: _171  and  _172
REMARK   77  A    between atoms: _174  and  _176
REMARK   78  A    between atoms: _176  and  _177
REMARK   79  A    between atoms: _179  and  _181
REMARK   80  A    between atoms: _181  and  _182
REMARK   81  A    between atoms: _181  and  _184
REMARK   82  A    between atoms: _184  and  _185
REMARK   83  A    between atoms: _191  and  _193
REMARK   84  A    between atoms: _193  and  _194
REMARK   85  A    between atoms: _193  and  _196
REMARK   86  A    between atoms: _196  and  _197
REMARK   87  A    between atoms: _200  and  _202
REMARK   88  A    between atoms: _202  and  _203
REMARK   89  A    between atoms: _202  and  _205
REMARK   90  A    between atoms: _208  and  _210
REMARK   91  A    between atoms: _210  and  _211
REMARK   92  A    between atoms: _210  and  _213
REMARK   93  A    between atoms: _213  and  _214
REMARK   94  A    between atoms: _217  and  _219
REMARK   95  A    between atoms: _219  and  _220
REMARK   96  A    between atoms: _219  and  _222
REMARK   97  A    between atoms: _222  and  _223
REMARK   98  A    between atoms: _227  and  _228
REMARK   99  A    between atoms: _233  and  _235
REMARK  100  A    between atoms: _235  and  _236
REMARK  101  A    between atoms: _235  and  _238
REMARK  102  A    between atoms: _238  and  _239
REMARK  103  A    between atoms: _242  and  _244
REMARK  104  A    between atoms: _244  and  _245
REMARK  105  A    between atoms: _244  and  _247
REMARK  106  A    between atoms: _247  and  _248
REMARK  107  A    between atoms: _253  and  _255
REMARK  108  A    between atoms: _255  and  _256
REMARK  109  A    between atoms: _255  and  _258
REMARK  110  A    between atoms: _261  and  _263
REMARK  111  A    between atoms: _263  and  _264
REMARK  112  A    between atoms: _263  and  _266
REMARK  113  A    between atoms: _266  and  _267
REMARK  114  A    between atoms: _270  and  _272
REMARK  115  A    between atoms: _272  and  _273
REMARK  116  A    between atoms: _275  and  _277
REMARK  117  A    between atoms: _277  and  _278
REMARK  118  A    between atoms: _277  and  _280
REMARK  119  A    between atoms: _280  and  _281
REMARK  120  A    between atoms: _281  and  _282
REMARK  121  A    between atoms: _282  and  _283
REMARK  122  A    between atoms: _292  and  _294
REMARK  123  A    between atoms: _294  and  _295
REMARK  124  A    between atoms: _294  and  _297
REMARK  125  A    between atoms: _297  and  _298
REMARK  126  A    between atoms: _303  and  _305
REMARK  127  A    between atoms: _305  and  _306
REMARK  128  A    between atoms: _305  and  _308
REMARK  129  A    between atoms: _308  and  _309
REMARK  130  A    between atoms: _309  and  _310
REMARK  131  A    between atoms: _310  and  _311
REMARK  132  A    between atoms: _320  and  _322
REMARK  133  A    between atoms: _322  and  _323
REMARK  134  A    between atoms: _322  and  _325
REMARK  135  A    between atoms: _325  and  _326
REMARK  136  A    between atoms: _329  and  _331
REMARK  137  A    between atoms: _331  and  _332
REMARK  138  A    between atoms: _331  and  _334
REMARK  139  A    between atoms: _334  and  _335
REMARK  140  A    between atoms: _338  and  _340
REMARK  141  A    between atoms: _340  and  _341
REMARK  142  A    between atoms: _340  and  _343
REMARK  143  A    between atoms: _343  and  _344
REMARK  144  A    between atoms: _347  and  _349
REMARK  145  A    between atoms: _349  and  _350
REMARK  146  A    between atoms: _349  and  _352
REMARK  147  A    between atoms: _352  and  _353
REMARK  148  A    between atoms: _356  and  _358
REMARK  149  A    between atoms: _358  and  _359
REMARK  150  A    between atoms: _358  and  _361
REMARK  151  A    between atoms: _361  and  _362
REMARK  152  A    between atoms: _365  and  _367
REMARK  153  A    between atoms: _367  and  _368
REMARK  154  A    between atoms: _370  and  _372
REMARK  155  A    between atoms: _372  and  _373
REMARK  156  A    between atoms: _376  and  _378
REMARK  157  A    between atoms: _378  and  _379
REMARK  158  A    between atoms: _378  and  _381
REMARK  159  A    between atoms: _381  and  _382
REMARK  160  A    between atoms: _385  and  _387
REMARK  161  A    between atoms: _387  and  _388
REMARK  162  A    between atoms: _387  and  _390
REMARK  163  A    between atoms: _390  and  _391
REMARK  164  A    between atoms: _394  and  _396
REMARK  165  A    between atoms: _396  and  _397
REMARK  166  A    between atoms: _396  and  _399
REMARK  167  A    between atoms: _399  and  _400
REMARK  168  A    between atoms: _403  and  _405
REMARK  169  A    between atoms: _405  and  _406
REMARK  170  A    between atoms: _405  and  _408
REMARK  171  A    between atoms: _411  and  _413
REMARK  172  A    between atoms: _413  and  _414
REMARK  173  A    between atoms: _413  and  _416
REMARK  174  A    between atoms: _416  and  _417
REMARK  175  A    between atoms: _417  and  _418
REMARK  176  A    between atoms: _418  and  _419
REMARK  177  A    between atoms: _419  and  _420
REMARK  178  A    between atoms: _424  and  _426
REMARK  179  A    between atoms: _426  and  _427
REMARK  180  A    between atoms: _426  and  _429
REMARK  181  A    between atoms: _429  and  _430
REMARK  182  A    between atoms: _430  and  _431
REMARK  183  A    between atoms: _433  and  _435
REMARK  184  A    between atoms: _435  and  _436
REMARK  185  A    between atoms: _435  and  _438
REMARK  186  A    between atoms: _438  and  _439
REMARK  187  A    between atoms: _442  and  _444
REMARK  188  A    between atoms: _444  and  _445
REMARK  189  A    between atoms: _447  and  _449
REMARK  190  A    between atoms: _449  and  _450
REMARK  191  A    between atoms: _452  and  _454
REMARK  192  A    between atoms: _454  and  _455
REMARK  193  A    between atoms: _454  and  _457
REMARK  194  A    between atoms: _457  and  _458
REMARK  195  A    between atoms: _461  and  _463
REMARK  196  A    between atoms: _463  and  _464
REMARK  197  A    between atoms: _466  and  _468
REMARK  198  A    between atoms: _468  and  _469
REMARK  199  A    between atoms: _471  and  _473
REMARK  200  A    between atoms: _473  and  _474
REMARK  201  A    between atoms: _473  and  _476
REMARK  202  A    between atoms: _476  and  _477
REMARK  203  A    between atoms: _483  and  _485
REMARK  204  A    between atoms: _485  and  _486
REMARK  205  A    between atoms: _485  and  _488
REMARK  206  A    between atoms: _488  and  _489
REMARK  207  A    between atoms: _492  and  _494
REMARK  208  A    between atoms: _494  and  _495
REMARK  209  A    between atoms: _494  and  _497
REMARK  210  A    between atoms: _500  and  _502
REMARK  211  A    between atoms: _502  and  _503
REMARK  212  A    between atoms: _502  and  _505
REMARK  213  A    between atoms: _505  and  _506
REMARK  214  A    between atoms: _509  and  _511
REMARK  215  A    between atoms: _511  and  _512
REMARK  216  A    between atoms: _511  and  _514
REMARK  217  A    between atoms: _514  and  _515
REMARK  218  A    between atoms: _519  and  _520
REMARK  219  A    between atoms: _525  and  _527
REMARK  220  A    between atoms: _527  and  _528
REMARK  221  A    between atoms: _527  and  _530
REMARK  222  A    between atoms: _530  and  _531
REMARK  223  A    between atoms: _534  and  _536
REMARK  224  A    between atoms: _536  and  _537
REMARK  225  A    between atoms: _536  and  _539
REMARK  226  A    between atoms: _539  and  _540
REMARK  227  A    between atoms: _545  and  _547
REMARK  228  A    between atoms: _547  and  _548
REMARK  229  A    between atoms: _547  and  _550
REMARK  230  A    between atoms: _553  and  _555
REMARK  231  A    between atoms: _555  and  _556
REMARK  232  A    between atoms: _555  and  _558
REMARK  233  A    between atoms: _558  and  _559
REMARK  234  A    between atoms: _562  and  _564
REMARK  235  A    between atoms: _564  and  _565
REMARK  236  A    between atoms: _567  and  _569
REMARK  237  A    between atoms: _569  and  _570
REMARK  238  A    between atoms: _569  and  _572
REMARK  239  A    between atoms: _572  and  _573
REMARK  240  A    between atoms: _573  and  _574
REMARK  241  A    between atoms: _574  and  _575
REMARK                            x       y       z     vdW  Elec       q    Type
REMARK                         _______ _______ _______ _____ _____    ______ ____
ROOT
ATOM      1  O   HOH     1      25.008  19.503   0.213  0.00  0.00    +0.000 OA
ENDROOT
TORSDOF 0
REMARK  Name = ../refined-set-2016/4a4q/4a4q_pocket.pdb
REMARK  241 active torsions:
REMARK  status: ('A' for Active; 'I' for Inactive)
REMARK    1  A    between atoms: _1  and  _3
REMARK    2  A    between atoms: _3  and  _4
REMARK    3  A    between atoms: _3  and  _6
REMARK    4  A    between atoms: _6  and  _7
REMARK    5  A    between atoms: _7  and  _8
REMARK    6  A    between atoms: _8  and  _9
REMARK    7  A    between atoms: _18  and  _20
REMARK    8  A    between atoms: _20  and  _21
REMARK    9  A    between atoms: _20  and  _23
REMARK   10  A    between atoms: _23  and  _24
REMARK   11  A    between atoms: _27  and  _29
REMARK   12  A    between atoms: _29  and  _30
REMARK   13  A    between atoms: _29  and  _32
REMARK   14  A    between atoms: _32  and  _33
REMARK   15  A    between atoms: _36  and  _38
REMARK   16  A    between atoms: _38  and  _39
REMARK   17  A    between atoms: _38  and  _41
REMARK   18  A    between atoms: _41  and  _42
REMARK   19  A    between atoms: _45  and  _47
REMARK   20  A    between atoms: _47  and  _48
REMARK   21  A    between atoms: _47  and  _50
REMARK   22  A    between atoms: _50  and  _51
REMARK   23  A    between atoms: _54  and  _56
REMARK   24  A    between atoms: _56  and  _57
REMARK   25  A    between atoms: _59  and  _61
REMARK   26  A    between atoms: _61  and  _62
REMARK   27  A    between atoms: _65  and  _67
REMARK   28  A    between atoms: _67  and  _68
REMARK   29  A    between atoms: _67  and  _70
REMARK   30  A    between atoms: _70  and  _71
REMARK   31  A    between atoms: _74  and  _76
REMARK   32  A    between atoms: _76  and  _77
REMARK   33  A    between atoms: _76  and  _79
REMARK   34  A    between atoms: _79  and  _80
REMARK   35  A    between atoms: _83  and  _85
REMARK   36  A    between atoms: _85  and  _86
REMARK   37  A    between atoms: _85  and  _88
REMARK   38  A    between atoms: _88  and  _89
REMARK   39  A    between atoms: _92  and  _94
REMARK   40  A    between atoms: _94  and  _95
REMARK   41  A    between atoms: _94  and  _97
REMARK   42  A    between atoms: _100  and  _102
REMARK   43  A    between atoms: _102  and  _103
REMARK   44  A    between atoms: _102  and  _105
REMARK   45  A    between atoms: _105  and  _106
REMARK   46  A    between atoms: _109  and  _111
REMARK   47  A    between atoms: _111  and  _112
REMARK   48  A    between atoms: _111  and  _114
REMARK   49  A    between atoms: _114  and  _115
REMARK   50  A    between atoms: _115  and  _116
REMARK   51  A    between atoms: _119  and  _121
REMARK   52  A    between atoms: _121  and  _122
REMARK   53  A    between atoms: _121  and  _124
REMARK   54  A    between atoms: _124  and  _125
REMARK   55  A    between atoms: _125  and  _126
REMARK   56  A    between atoms: _126  and  _127
REMARK   57  A    between atoms: _127  and  _128
REMARK   58  A    between atoms: _132  and  _134
REMARK   59  A    between atoms: _134  and  _135
REMARK   60  A    between atoms: _134  and  _137
REMARK   61  A    between atoms: _137  and  _138
REMARK   62  A    between atoms: _138  and  _139
REMARK   63  A    between atoms: _141  and  _143
REMARK   64  A    between atoms: _143  and  _144
REMARK   65  A    between atoms: _143  and  _146
REMARK   66  A    between atoms: _146  and  _147
REMARK   67  A    between atoms: _150  and  _152
REMARK   68  A    between atoms: _152  and  _153
REMARK   69  A    between atoms: _155  and  _157
REMARK   70  A    between atoms: _157  and  _158
REMARK   71  A    between atoms: _160  and  _162
REMARK   72  A    between atoms: _162  and  _163
REMARK   73  A    between atoms: _162  and  _165
REMARK   74  A    between atoms: _165  and  _166
REMARK   75  A    between atoms: _169  and  _171
REMARK   76  A    between atoms: _171  and  _172
REMARK   77  A    between atoms: _174  and  _176
REMARK   78  A    between atoms: _176  and  _177
REMARK   79  A    between atoms: _179  and  _181
REMARK   80  A    between atoms: _181  and  _182
REMARK   81  A    between atoms: _181  and  _184
REMARK   82  A    between atoms: _184  and  _185
REMARK   83  A    between atoms: _191  and  _193
REMARK   84  A    between atoms: _193  and  _194
REMARK   85  A    between atoms: _193  and  _196
REMARK   86  A    between atoms: _196  and  _197
REMARK   87  A    between atoms: _200  and  _202
REMARK   88  A    between atoms: _202  and  _203
REMARK   89  A    between atoms: _202  and  _205
REMARK   90  A    between atoms: _208  and  _210
REMARK   91  A    between atoms: _210  and  _211
REMARK   92  A    between atoms: _210  and  _213
REMARK   93  A    between atoms: _213  and  _214
REMARK   94  A    between atoms: _217  and  _219
REMARK   95  A    between atoms: _219  and  _220
REMARK   96  A    between atoms: _219  and  _222
REMARK   97  A    between atoms: _222  and  _223
REMARK   98  A    between atoms: _227  and  _228
REMARK   99  A    between atoms: _233  and  _235
REMARK  100  A    between atoms: _235  and  _236
REMARK  101  A    between atoms: _235  and  _238
REMARK  102  A    between atoms: _238  and  _239
REMARK  103  A    between atoms: _242  and  _244
REMARK  104  A    between atoms: _244  and  _245
REMARK  105  A    between atoms: _244  and  _247
REMARK  106  A    between atoms: _247  and  _248
REMARK  107  A    between atoms: _253  and  _255
REMARK  108  A    between atoms: _255  and  _256
REMARK  109  A    between atoms: _255  and  _258
REMARK  110  A    between atoms: _261  and  _263
REMARK  111  A    between atoms: _263  and  _264
REMARK  112  A    between atoms: _263  and  _266
REMARK  113  A    between atoms: _266  and  _267
REMARK  114  A    between atoms: _270  and  _272
REMARK  115  A    between atoms: _272  and  _273
REMARK  116  A    between atoms: _275  and  _277
REMARK  117  A    between atoms: _277  and  _278
REMARK  118  A    between atoms: _277  and  _280
REMARK  119  A    between atoms: _280  and  _281
REMARK  120  A    between atoms: _281  and  _282
REMARK  121  A    between atoms: _282  and  _283
REMARK  122  A    between atoms: _292  and  _294
REMARK  123  A    between atoms: _294  and  _295
REMARK  124  A    between atoms: _294  and  _297
REMARK  125  A    between atoms: _297  and  _298
REMARK  126  A    between atoms: _303  and  _305
REMARK  127  A    between atoms: _305  and  _306
REMARK  128  A    between atoms: _305  and  _308
REMARK  129  A    between atoms: _308  and  _309
REMARK  130  A    between atoms: _309  and  _310
REMARK  131  A    between atoms: _310  and  _311
REMARK  132  A    between atoms: _320  and  _322
REMARK  133  A    between atoms: _322  and  _323
REMARK  134  A    between atoms: _322  and  _325
REMARK  135  A    between atoms: _325  and  _326
REMARK  136  A    between atoms: _329  and  _331
REMARK  137  A    between atoms: _331  and  _332
REMARK  138  A    between atoms: _331  and  _334
REMARK  139  A    between atoms: _334  and  _335
REMARK  140  A    between atoms: _338  and  _340
REMARK  141  A    between atoms: _340  and  _341
REMARK  142  A    between atoms: _340  and  _343
REMARK  143  A    between atoms: _343  and  _344
REMARK  144  A    between atoms: _347  and  _349
REMARK  145  A    between atoms: _349  and  _350
REMARK  146  A    between atoms: _349  and  _352
REMARK  147  A    between atoms: _352  and  _353
REMARK  148  A    between atoms: _356  and  _358
REMARK  149  A    between atoms: _358  and  _359
REMARK  150  A    between atoms: _358  and  _361
REMARK  151  A    between atoms: _361  and  _362
REMARK  152  A    between atoms: _365  and  _367
REMARK  153  A    between atoms: _367  and  _368
REMARK  154  A    between atoms: _370  and  _372
REMARK  155  A    between atoms: _372  and  _373
REMARK  156  A    between atoms: _376  and  _378
REMARK  157  A    between atoms: _378  and  _379
REMARK  158  A    between atoms: _378  and  _381
REMARK  159  A    between atoms: _381  and  _382
REMARK  160  A    between atoms: _385  and  _387
REMARK  161  A    between atoms: _387  and  _388
REMARK  162  A    between atoms: _387  and  _390
REMARK  163  A    between atoms: _390  and  _391
REMARK  164  A    between atoms: _394  and  _396
REMARK  165  A    between atoms: _396  and  _397
REMARK  166  A    between atoms: _396  and  _399
REMARK  167  A    between atoms: _399  and  _400
REMARK  168  A    between atoms: _403  and  _405
REMARK  169  A    between atoms: _405  and  _406
REMARK  170  A    between atoms: _405  and  _408
REMARK  171  A    between atoms: _411  and  _413
REMARK  172  A    between atoms: _413  and  _414
REMARK  173  A    between atoms: _413  and  _416
REMARK  174  A    between atoms: _416  and  _417
REMARK  175  A    between atoms: _417  and  _418
REMARK  176  A    between atoms: _418  and  _419
REMARK  177  A    between atoms: _419  and  _420
REMARK  178  A    between atoms: _424  and  _426
REMARK  179  A    between atoms: _426  and  _427
REMARK  180  A    between atoms: _426  and  _429
REMARK  181  A    between atoms: _429  and  _430
REMARK  182  A    between atoms: _430  and  _431
REMARK  183  A    between atoms: _433  and  _435
REMARK  184  A    between atoms: _435  and  _436
REMARK  185  A    between atoms: _435  and  _438
REMARK  186  A    between atoms: _438  and  _439
REMARK  187  A    between atoms: _442  and  _444
REMARK  188  A    between atoms: _444  and  _445
REMARK  189  A    between atoms: _447  and  _449
REMARK  190  A    between atoms: _449  and  _450
REMARK  191  A    between atoms: _452  and  _454
REMARK  192  A    between atoms: _454  and  _455
REMARK  193  A    between atoms: _454  and  _457
REMARK  194  A    between atoms: _457  and  _458
REMARK  195  A    between atoms: _461  and  _463
REMARK  196  A    between atoms: _463  and  _464
REMARK  197  A    between atoms: _466  and  _468
REMARK  198  A    between atoms: _468  and  _469
REMARK  199  A    between atoms: _471  and  _473
REMARK  200  A    between atoms: _473  and  _474
REMARK  201  A    between atoms: _473  and  _476
REMARK  202  A    between atoms: _476  and  _477
REMARK  203  A    between atoms: _483  and  _485
REMARK  204  A    between atoms: _485  and  _486
REMARK  205  A    between atoms: _485  and  _488
REMARK  206  A    between atoms: _488  and  _489
REMARK  207  A    between atoms: _492  and  _494
REMARK  208  A    between atoms: _494  and  _495
REMARK  209  A    between atoms: _494  and  _497
REMARK  210  A    between atoms: _500  and  _502
REMARK  211  A    between atoms: _502  and  _503
REMARK  212  A    between atoms: _502  and  _505
REMARK  213  A    between atoms: _505  and  _506
REMARK  214  A    between atoms: _509  and  _511
REMARK  215  A    between atoms: _511  and  _512
REMARK  216  A    between atoms: _511  and  _514
REMARK  217  A    between atoms: _514  and  _515
REMARK  218  A    between atoms: _519  and  _520
REMARK  219  A    between atoms: _525  and  _527
REMARK  220  A    between atoms: _527  and  _528
REMARK  221  A    between atoms: _527  and  _530
REMARK  222  A    between atoms: _530  and  _531
REMARK  223  A    between atoms: _534  and  _536
REMARK  224  A    between atoms: _536  and  _537
REMARK  225  A    between atoms: _536  and  _539
REMARK  226  A    between atoms: _539  and  _540
REMARK  227  A    between atoms: _545  and  _547
REMARK  228  A    between atoms: _547  and  _548
REMARK  229  A    between atoms: _547  and  _550
REMARK  230  A    between atoms: _553  and  _555
REMARK  231  A    between atoms: _555  and  _556
REMARK  232  A    between atoms: _555  and  _558
REMARK  233  A    between atoms: _558  and  _559
REMARK  234  A    between atoms: _562  and  _564
REMARK  235  A    between atoms: _564  and  _565
REMARK  236  A    between atoms: _567  and  _569
REMARK  237  A    between atoms: _569  and  _570
REMARK  238  A    between atoms: _569  and  _572
REMARK  239  A    between atoms: _572  and  _573
REMARK  240  A    between atoms: _573  and  _574
REMARK  241  A    between atoms: _574  and  _575
REMARK                            x       y       z     vdW  Elec       q    Type
REMARK                         _______ _______ _______ _____ _____    ______ ____
ROOT
ATOM      1  O   HOH     1      22.282  15.520   4.490  0.00  0.00    +0.000 OA
ENDROOT
TORSDOF 0
REMARK  Name = ../refined-set-2016/4a4q/4a4q_pocket.pdb
REMARK  241 active torsions:
REMARK  status: ('A' for Active; 'I' for Inactive)
REMARK    1  A    between atoms: _1  and  _3
REMARK    2  A    between atoms: _3  and  _4
REMARK    3  A    between atoms: _3  and  _6
REMARK    4  A    between atoms: _6  and  _7
REMARK    5  A    between atoms: _7  and  _8
REMARK    6  A    between atoms: _8  and  _9
REMARK    7  A    between atoms: _18  and  _20
REMARK    8  A    between atoms: _20  and  _21
REMARK    9  A    between atoms: _20  and  _23
REMARK   10  A    between atoms: _23  and  _24
REMARK   11  A    between atoms: _27  and  _29
REMARK   12  A    between atoms: _29  and  _30
REMARK   13  A    between atoms: _29  and  _32
REMARK   14  A    between atoms: _32  and  _33
REMARK   15  A    between atoms: _36  and  _38
REMARK   16  A    between atoms: _38  and  _39
REMARK   17  A    between atoms: _38  and  _41
REMARK   18  A    between atoms: _41  and  _42
REMARK   19  A    between atoms: _45  and  _47
REMARK   20  A    between atoms: _47  and  _48
REMARK   21  A    between atoms: _47  and  _50
REMARK   22  A    between atoms: _50  and  _51
REMARK   23  A    between atoms: _54  and  _56
REMARK   24  A    between atoms: _56  and  _57
REMARK   25  A    between atoms: _59  and  _61
REMARK   26  A    between atoms: _61  and  _62
REMARK   27  A    between atoms: _65  and  _67
REMARK   28  A    between atoms: _67  and  _68
REMARK   29  A    between atoms: _67  and  _70
REMARK   30  A    between atoms: _70  and  _71
REMARK   31  A    between atoms: _74  and  _76
REMARK   32  A    between atoms: _76  and  _77
REMARK   33  A    between atoms: _76  and  _79
REMARK   34  A    between atoms: _79  and  _80
REMARK   35  A    between atoms: _83  and  _85
REMARK   36  A    between atoms: _85  and  _86
REMARK   37  A    between atoms: _85  and  _88
REMARK   38  A    between atoms: _88  and  _89
REMARK   39  A    between atoms: _92  and  _94
REMARK   40  A    between atoms: _94  and  _95
REMARK   41  A    between atoms: _94  and  _97
REMARK   42  A    between atoms: _100  and  _102
REMARK   43  A    between atoms: _102  and  _103
REMARK   44  A    between atoms: _102  and  _105
REMARK   45  A    between atoms: _105  and  _106
REMARK   46  A    between atoms: _109  and  _111
REMARK   47  A    between atoms: _111  and  _112
REMARK   48  A    between atoms: _111  and  _114
REMARK   49  A    between atoms: _114  and  _115
REMARK   50  A    between atoms: _115  and  _116
REMARK   51  A    between atoms: _119  and  _121
REMARK   52  A    between atoms: _121  and  _122
REMARK   53  A    between atoms: _121  and  _124
REMARK   54  A    between atoms: _124  and  _125
REMARK   55  A    between atoms: _125  and  _126
REMARK   56  A    between atoms: _126  and  _127
REMARK   57  A    between atoms: _127  and  _128
REMARK   58  A    between atoms: _132  and  _134
REMARK   59  A    between atoms: _134  and  _135
REMARK   60  A    between atoms: _134  and  _137
REMARK   61  A    between atoms: _137  and  _138
REMARK   62  A    between atoms: _138  and  _139
REMARK   63  A    between atoms: _141  and  _143
REMARK   64  A    between atoms: _143  and  _144
REMARK   65  A    between atoms: _143  and  _146
REMARK   66  A    between atoms: _146  and  _147
REMARK   67  A    between atoms: _150  and  _152
REMARK   68  A    between atoms: _152  and  _153
REMARK   69  A    between atoms: _155  and  _157
REMARK   70  A    between atoms: _157  and  _158
REMARK   71  A    between atoms: _160  and  _162
REMARK   72  A    between atoms: _162  and  _163
REMARK   73  A    between atoms: _162  and  _165
REMARK   74  A    between atoms: _165  and  _166
REMARK   75  A    between atoms: _169  and  _171
REMARK   76  A    between atoms: _171  and  _172
REMARK   77  A    between atoms: _174  and  _176
REMARK   78  A    between atoms: _176  and  _177
REMARK   79  A    between atoms: _179  and  _181
REMARK   80  A    between atoms: _181  and  _182
REMARK   81  A    between atoms: _181  and  _184
REMARK   82  A    between atoms: _184  and  _185
REMARK   83  A    between atoms: _191  and  _193
REMARK   84  A    between atoms: _193  and  _194
REMARK   85  A    between atoms: _193  and  _196
REMARK   86  A    between atoms: _196  and  _197
REMARK   87  A    between atoms: _200  and  _202
REMARK   88  A    between atoms: _202  and  _203
REMARK   89  A    between atoms: _202  and  _205
REMARK   90  A    between atoms: _208  and  _210
REMARK   91  A    between atoms: _210  and  _211
REMARK   92  A    between atoms: _210  and  _213
REMARK   93  A    between atoms: _213  and  _214
REMARK   94  A    between atoms: _217  and  _219
REMARK   95  A    between atoms: _219  and  _220
REMARK   96  A    between atoms: _219  and  _222
REMARK   97  A    between atoms: _222  and  _223
REMARK   98  A    between atoms: _227  and  _228
REMARK   99  A    between atoms: _233  and  _235
REMARK  100  A    between atoms: _235  and  _236
REMARK  101  A    between atoms: _235  and  _238
REMARK  102  A    between atoms: _238  and  _239
REMARK  103  A    between atoms: _242  and  _244
REMARK  104  A    between atoms: _244  and  _245
REMARK  105  A    between atoms: _244  and  _247
REMARK  106  A    between atoms: _247  and  _248
REMARK  107  A    between atoms: _253  and  _255
REMARK  108  A    between atoms: _255  and  _256
REMARK  109  A    between atoms: _255  and  _258
REMARK  110  A    between atoms: _261  and  _263
REMARK  111  A    between atoms: _263  and  _264
REMARK  112  A    between atoms: _263  and  _266
REMARK  113  A    between atoms: _266  and  _267
REMARK  114  A    between atoms: _270  and  _272
REMARK  115  A    between atoms: _272  and  _273
REMARK  116  A    between atoms: _275  and  _277
REMARK  117  A    between atoms: _277  and  _278
REMARK  118  A    between atoms: _277  and  _280
REMARK  119  A    between atoms: _280  and  _281
REMARK  120  A    between atoms: _281  and  _282
REMARK  121  A    between atoms: _282  and  _283
REMARK  122  A    between atoms: _292  and  _294
REMARK  123  A    between atoms: _294  and  _295
REMARK  124  A    between atoms: _294  and  _297
REMARK  125  A    between atoms: _297  and  _298
REMARK  126  A    between atoms: _303  and  _305
REMARK  127  A    between atoms: _305  and  _306
REMARK  128  A    between atoms: _305  and  _308
REMARK  129  A    between atoms: _308  and  _309
REMARK  130  A    between atoms: _309  and  _310
REMARK  131  A    between atoms: _310  and  _311
REMARK  132  A    between atoms: _320  and  _322
REMARK  133  A    between atoms: _322  and  _323
REMARK  134  A    between atoms: _322  and  _325
REMARK  135  A    between atoms: _325  and  _326
REMARK  136  A    between atoms: _329  and  _331
REMARK  137  A    between atoms: _331  and  _332
REMARK  138  A    between atoms: _331  and  _334
REMARK  139  A    between atoms: _334  and  _335
REMARK  140  A    between atoms: _338  and  _340
REMARK  141  A    between atoms: _340  and  _341
REMARK  142  A    between atoms: _340  and  _343
REMARK  143  A    between atoms: _343  and  _344
REMARK  144  A    between atoms: _347  and  _349
REMARK  145  A    between atoms: _349  and  _350
REMARK  146  A    between atoms: _349  and  _352
REMARK  147  A    between atoms: _352  and  _353
REMARK  148  A    between atoms: _356  and  _358
REMARK  149  A    between atoms: _358  and  _359
REMARK  150  A    between atoms: _358  and  _361
REMARK  151  A    between atoms: _361  and  _362
REMARK  152  A    between atoms: _365  and  _367
REMARK  153  A    between atoms: _367  and  _368
REMARK  154  A    between atoms: _370  and  _372
REMARK  155  A    between atoms: _372  and  _373
REMARK  156  A    between atoms: _376  and  _378
REMARK  157  A    between atoms: _378  and  _379
REMARK  158  A    between atoms: _378  and  _381
REMARK  159  A    between atoms: _381  and  _382
REMARK  160  A    between atoms: _385  and  _387
REMARK  161  A    between atoms: _387  and  _388
REMARK  162  A    between atoms: _387  and  _390
REMARK  163  A    between atoms: _390  and  _391
REMARK  164  A    between atoms: _394  and  _396
REMARK  165  A    between atoms: _396  and  _397
REMARK  166  A    between atoms: _396  and  _399
REMARK  167  A    between atoms: _399  and  _400
REMARK  168  A    between atoms: _403  and  _405
REMARK  169  A    between atoms: _405  and  _406
REMARK  170  A    between atoms: _405  and  _408
REMARK  171  A    between atoms: _411  and  _413
REMARK  172  A    between atoms: _413  and  _414
REMARK  173  A    between atoms: _413  and  _416
REMARK  174  A    between atoms: _416  and  _417
REMARK  175  A    between atoms: _417  and  _418
REMARK  176  A    between atoms: _418  and  _419
REMARK  177  A    between atoms: _419  and  _420
REMARK  178  A    between atoms: _424  and  _426
REMARK  179  A    between atoms: _426  and  _427
REMARK  180  A    between atoms: _426  and  _429
REMARK  181  A    between atoms: _429  and  _430
REMARK  182  A    between atoms: _430  and  _431
REMARK  183  A    between atoms: _433  and  _435
REMARK  184  A    between atoms: _435  and  _436
REMARK  185  A    between atoms: _435  and  _438
REMARK  186  A    between atoms: _438  and  _439
REMARK  187  A    between atoms: _442  and  _444
REMARK  188  A    between atoms: _444  and  _445
REMARK  189  A    between atoms: _447  and  _449
REMARK  190  A    between atoms: _449  and  _450
REMARK  191  A    between atoms: _452  and  _454
REMARK  192  A    between atoms: _454  and  _455
REMARK  193  A    between atoms: _454  and  _457
REMARK  194  A    between atoms: _457  and  _458
REMARK  195  A    between atoms: _461  and  _463
REMARK  196  A    between atoms: _463  and  _464
REMARK  197  A    between atoms: _466  and  _468
REMARK  198  A    between atoms: _468  and  _469
REMARK  199  A    between atoms: _471  and  _473
REMARK  200  A    between atoms: _473  and  _474
REMARK  201  A    between atoms: _473  and  _476
REMARK  202  A    between atoms: _476  and  _477
REMARK  203  A    between atoms: _483  and  _485
REMARK  204  A    between atoms: _485  and  _486
REMARK  205  A    between atoms: _485  and  _488
REMARK  206  A    between atoms: _488  and  _489
REMARK  207  A    between atoms: _492  and  _494
REMARK  208  A    between atoms: _494  and  _495
REMARK  209  A    between atoms: _494  and  _497
REMARK  210  A    between atoms: _500  and  _502
REMARK  211  A    between atoms: _502  and  _503
REMARK  212  A    between atoms: _502  and  _505
REMARK  213  A    between atoms: _505  and  _506
REMARK  214  A    between atoms: _509  and  _511
REMARK  215  A    between atoms: _511  and  _512
REMARK  216  A    between atoms: _511  and  _514
REMARK  217  A    between atoms: _514  and  _515
REMARK  218  A    between atoms: _519  and  _520
REMARK  219  A    between atoms: _525  and  _527
REMARK  220  A    between atoms: _527  and  _528
REMARK  221  A    between atoms: _527  and  _530
REMARK  222  A    between atoms: _530  and  _531
REMARK  223  A    between atoms: _534  and  _536
REMARK  224  A    between atoms: _536  and  _537
REMARK  225  A    between atoms: _536  and  _539
REMARK  226  A    between atoms: _539  and  _540
REMARK  227  A    between atoms: _545  and  _547
REMARK  228  A    between atoms: _547  and  _548
REMARK  229  A    between atoms: _547  and  _550
REMARK  230  A    between atoms: _553  and  _555
REMARK  231  A    between atoms: _555  and  _556
REMARK  232  A    between atoms: _555  and  _558
REMARK  233  A    between atoms: _558  and  _559
REMARK  234  A    between atoms: _562  and  _564
REMARK  235  A    between atoms: _564  and  _565
REMARK  236  A    between atoms: _567  and  _569
REMARK  237  A    between atoms: _569  and  _570
REMARK  238  A    between atoms: _569  and  _572
REMARK  239  A    between atoms: _572  and  _573
REMARK  240  A    between atoms: _573  and  _574
REMARK  241  A    between atoms: _574  and  _575
REMARK                            x       y       z     vdW  Elec       q    Type
REMARK                         _______ _______ _______ _____ _____    ______ ____
ROOT
ATOM      1  O   HOH     1      25.790  17.747   5.071  0.00  0.00    +0.000 OA
ENDROOT
TORSDOF 0
REMARK  Name = ../refined-set-2016/4a4q/4a4q_pocket.pdb
REMARK  241 active torsions:
REMARK  status: ('A' for Active; 'I' for Inactive)
REMARK    1  A    between atoms: _1  and  _3
REMARK    2  A    between atoms: _3  and  _4
REMARK    3  A    between atoms: _3  and  _6
REMARK    4  A    between atoms: _6  and  _7
REMARK    5  A    between atoms: _7  and  _8
REMARK    6  A    between atoms: _8  and  _9
REMARK    7  A    between atoms: _18  and  _20
REMARK    8  A    between atoms: _20  and  _21
REMARK    9  A    between atoms: _20  and  _23
REMARK   10  A    between atoms: _23  and  _24
REMARK   11  A    between atoms: _27  and  _29
REMARK   12  A    between atoms: _29  and  _30
REMARK   13  A    between atoms: _29  and  _32
REMARK   14  A    between atoms: _32  and  _33
REMARK   15  A    between atoms: _36  and  _38
REMARK   16  A    between atoms: _38  and  _39
REMARK   17  A    between atoms: _38  and  _41
REMARK   18  A    between atoms: _41  and  _42
REMARK   19  A    between atoms: _45  and  _47
REMARK   20  A    between atoms: _47  and  _48
REMARK   21  A    between atoms: _47  and  _50
REMARK   22  A    between atoms: _50  and  _51
REMARK   23  A    between atoms: _54  and  _56
REMARK   24  A    between atoms: _56  and  _57
REMARK   25  A    between atoms: _59  and  _61
REMARK   26  A    between atoms: _61  and  _62
REMARK   27  A    between atoms: _65  and  _67
REMARK   28  A    between atoms: _67  and  _68
REMARK   29  A    between atoms: _67  and  _70
REMARK   30  A    between atoms: _70  and  _71
REMARK   31  A    between atoms: _74  and  _76
REMARK   32  A    between atoms: _76  and  _77
REMARK   33  A    between atoms: _76  and  _79
REMARK   34  A    between atoms: _79  and  _80
REMARK   35  A    between atoms: _83  and  _85
REMARK   36  A    between atoms: _85  and  _86
REMARK   37  A    between atoms: _85  and  _88
REMARK   38  A    between atoms: _88  and  _89
REMARK   39  A    between atoms: _92  and  _94
REMARK   40  A    between atoms: _94  and  _95
REMARK   41  A    between atoms: _94  and  _97
REMARK   42  A    between atoms: _100  and  _102
REMARK   43  A    between atoms: _102  and  _103
REMARK   44  A    between atoms: _102  and  _105
REMARK   45  A    between atoms: _105  and  _106
REMARK   46  A    between atoms: _109  and  _111
REMARK   47  A    between atoms: _111  and  _112
REMARK   48  A    between atoms: _111  and  _114
REMARK   49  A    between atoms: _114  and  _115
REMARK   50  A    between atoms: _115  and  _116
REMARK   51  A    between atoms: _119  and  _121
REMARK   52  A    between atoms: _121  and  _122
REMARK   53  A    between atoms: _121  and  _124
REMARK   54  A    between atoms: _124  and  _125
REMARK   55  A    between atoms: _125  and  _126
REMARK   56  A    between atoms: _126  and  _127
REMARK   57  A    between atoms: _127  and  _128
REMARK   58  A    between atoms: _132  and  _134
REMARK   59  A    between atoms: _134  and  _135
REMARK   60  A    between atoms: _134  and  _137
REMARK   61  A    between atoms: _137  and  _138
REMARK   62  A    between atoms: _138  and  _139
REMARK   63  A    between atoms: _141  and  _143
REMARK   64  A    between atoms: _143  and  _144
REMARK   65  A    between atoms: _143  and  _146
REMARK   66  A    between atoms: _146  and  _147
REMARK   67  A    between atoms: _150  and  _152
REMARK   68  A    between atoms: _152  and  _153
REMARK   69  A    between atoms: _155  and  _157
REMARK   70  A    between atoms: _157  and  _158
REMARK   71  A    between atoms: _160  and  _162
REMARK   72  A    between atoms: _162  and  _163
REMARK   73  A    between atoms: _162  and  _165
REMARK   74  A    between atoms: _165  and  _166
REMARK   75  A    between atoms: _169  and  _171
REMARK   76  A    between atoms: _171  and  _172
REMARK   77  A    between atoms: _174  and  _176
REMARK   78  A    between atoms: _176  and  _177
REMARK   79  A    between atoms: _179  and  _181
REMARK   80  A    between atoms: _181  and  _182
REMARK   81  A    between atoms: _181  and  _184
REMARK   82  A    between atoms: _184  and  _185
REMARK   83  A    between atoms: _191  and  _193
REMARK   84  A    between atoms: _193  and  _194
REMARK   85  A    between atoms: _193  and  _196
REMARK   86  A    between atoms: _196  and  _197
REMARK   87  A    between atoms: _200  and  _202
REMARK   88  A    between atoms: _202  and  _203
REMARK   89  A    between atoms: _202  and  _205
REMARK   90  A    between atoms: _208  and  _210
REMARK   91  A    between atoms: _210  and  _211
REMARK   92  A    between atoms: _210  and  _213
REMARK   93  A    between atoms: _213  and  _214
REMARK   94  A    between atoms: _217  and  _219
REMARK   95  A    between atoms: _219  and  _220
REMARK   96  A    between atoms: _219  and  _222
REMARK   97  A    between atoms: _222  and  _223
REMARK   98  A    between atoms: _227  and  _228
REMARK   99  A    between atoms: _233  and  _235
REMARK  100  A    between atoms: _235  and  _236
REMARK  101  A    between atoms: _235  and  _238
REMARK  102  A    between atoms: _238  and  _239
REMARK  103  A    between atoms: _242  and  _244
REMARK  104  A    between atoms: _244  and  _245
REMARK  105  A    between atoms: _244  and  _247
REMARK  106  A    between atoms: _247  and  _248
REMARK  107  A    between atoms: _253  and  _255
REMARK  108  A    between atoms: _255  and  _256
REMARK  109  A    between atoms: _255  and  _258
REMARK  110  A    between atoms: _261  and  _263
REMARK  111  A    between atoms: _263  and  _264
REMARK  112  A    between atoms: _263  and  _266
REMARK  113  A    between atoms: _266  and  _267
REMARK  114  A    between atoms: _270  and  _272
REMARK  115  A    between atoms: _272  and  _273
REMARK  116  A    between atoms: _275  and  _277
REMARK  117  A    between atoms: _277  and  _278
REMARK  118  A    between atoms: _277  and  _280
REMARK  119  A    between atoms: _280  and  _281
REMARK  120  A    between atoms: _281  and  _282
REMARK  121  A    between atoms: _282  and  _283
REMARK  122  A    between atoms: _292  and  _294
REMARK  123  A    between atoms: _294  and  _295
REMARK  124  A    between atoms: _294  and  _297
REMARK  125  A    between atoms: _297  and  _298
REMARK  126  A    between atoms: _303  and  _305
REMARK  127  A    between atoms: _305  and  _306
REMARK  128  A    between atoms: _305  and  _308
REMARK  129  A    between atoms: _308  and  _309
REMARK  130  A    between atoms: _309  and  _310
REMARK  131  A    between atoms: _310  and  _311
REMARK  132  A    between atoms: _320  and  _322
REMARK  133  A    between atoms: _322  and  _323
REMARK  134  A    between atoms: _322  and  _325
REMARK  135  A    between atoms: _325  and  _326
REMARK  136  A    between atoms: _329  and  _331
REMARK  137  A    between atoms: _331  and  _332
REMARK  138  A    between atoms: _331  and  _334
REMARK  139  A    between atoms: _334  and  _335
REMARK  140  A    between atoms: _338  and  _340
REMARK  141  A    between atoms: _340  and  _341
REMARK  142  A    between atoms: _340  and  _343
REMARK  143  A    between atoms: _343  and  _344
REMARK  144  A    between atoms: _347  and  _349
REMARK  145  A    between atoms: _349  and  _350
REMARK  146  A    between atoms: _349  and  _352
REMARK  147  A    between atoms: _352  and  _353
REMARK  148  A    between atoms: _356  and  _358
REMARK  149  A    between atoms: _358  and  _359
REMARK  150  A    between atoms: _358  and  _361
REMARK  151  A    between atoms: _361  and  _362
REMARK  152  A    between atoms: _365  and  _367
REMARK  153  A    between atoms: _367  and  _368
REMARK  154  A    between atoms: _370  and  _372
REMARK  155  A    between atoms: _372  and  _373
REMARK  156  A    between atoms: _376  and  _378
REMARK  157  A    between atoms: _378  and  _379
REMARK  158  A    between atoms: _378  and  _381
REMARK  159  A    between atoms: _381  and  _382
REMARK  160  A    between atoms: _385  and  _387
REMARK  161  A    between atoms: _387  and  _388
REMARK  162  A    between atoms: _387  and  _390
REMARK  163  A    between atoms: _390  and  _391
REMARK  164  A    between atoms: _394  and  _396
REMARK  165  A    between atoms: _396  and  _397
REMARK  166  A    between atoms: _396  and  _399
REMARK  167  A    between atoms: _399  and  _400
REMARK  168  A    between atoms: _403  and  _405
REMARK  169  A    between atoms: _405  and  _406
REMARK  170  A    between atoms: _405  and  _408
REMARK  171  A    between atoms: _411  and  _413
REMARK  172  A    between atoms: _413  and  _414
REMARK  173  A    between atoms: _413  and  _416
REMARK  174  A    between atoms: _416  and  _417
REMARK  175  A    between atoms: _417  and  _418
REMARK  176  A    between atoms: _418  and  _419
REMARK  177  A    between atoms: _419  and  _420
REMARK  178  A    between atoms: _424  and  _426
REMARK  179  A    between atoms: _426  and  _427
REMARK  180  A    between atoms: _426  and  _429
REMARK  181  A    between atoms: _429  and  _430
REMARK  182  A    between atoms: _430  and  _431
REMARK  183  A    between atoms: _433  and  _435
REMARK  184  A    between atoms: _435  and  _436
REMARK  185  A    between atoms: _435  and  _438
REMARK  186  A    between atoms: _438  and  _439
REMARK  187  A    between atoms: _442  and  _444
REMARK  188  A    between atoms: _444  and  _445
REMARK  189  A    between atoms: _447  and  _449
REMARK  190  A    between atoms: _449  and  _450
REMARK  191  A    between atoms: _452  and  _454
REMARK  192  A    between atoms: _454  and  _455
REMARK  193  A    between atoms: _454  and  _457
REMARK  194  A    between atoms: _457  and  _458
REMARK  195  A    between atoms: _461  and  _463
REMARK  196  A    between atoms: _463  and  _464
REMARK  197  A    between atoms: _466  and  _468
REMARK  198  A    between atoms: _468  and  _469
REMARK  199  A    between atoms: _471  and  _473
REMARK  200  A    between atoms: _473  and  _474
REMARK  201  A    between atoms: _473  and  _476
REMARK  202  A    between atoms: _476  and  _477
REMARK  203  A    between atoms: _483  and  _485
REMARK  204  A    between atoms: _485  and  _486
REMARK  205  A    between atoms: _485  and  _488
REMARK  206  A    between atoms: _488  and  _489
REMARK  207  A    between atoms: _492  and  _494
REMARK  208  A    between atoms: _494  and  _495
REMARK  209  A    between atoms: _494  and  _497
REMARK  210  A    between atoms: _500  and  _502
REMARK  211  A    between atoms: _502  and  _503
REMARK  212  A    between atoms: _502  and  _505
REMARK  213  A    between atoms: _505  and  _506
REMARK  214  A    between atoms: _509  and  _511
REMARK  215  A    between atoms: _511  and  _512
REMARK  216  A    between atoms: _511  and  _514
REMARK  217  A    between atoms: _514  and  _515
REMARK  218  A    between atoms: _519  and  _520
REMARK  219  A    between atoms: _525  and  _527
REMARK  220  A    between atoms: _527  and  _528
REMARK  221  A    between atoms: _527  and  _530
REMARK  222  A    between atoms: _530  and  _531
REMARK  223  A    between atoms: _534  and  _536
REMARK  224  A    between atoms: _536  and  _537
REMARK  225  A    between atoms: _536  and  _539
REMARK  226  A    between atoms: _539  and  _540
REMARK  227  A    between atoms: _545  and  _547
REMARK  228  A    between atoms: _547  and  _548
REMARK  229  A    between atoms: _547  and  _550
REMARK  230  A    between atoms: _553  and  _555
REMARK  231  A    between atoms: _555  and  _556
REMARK  232  A    between atoms: _555  and  _558
REMARK  233  A    between atoms: _558  and  _559
REMARK  234  A    between atoms: _562  and  _564
REMARK  235  A    between atoms: _564  and  _565
REMARK  236  A    between atoms: _567  and  _569
REMARK  237  A    between atoms: _569  and  _570
REMARK  238  A    between atoms: _569  and  _572
REMARK  239  A    between atoms: _572  and  _573
REMARK  240  A    between atoms: _573  and  _574
REMARK  241  A    between atoms: _574  and  _575
REMARK                            x       y       z     vdW  Elec       q    Type
REMARK                         _______ _______ _______ _____ _____    ______ ____
ROOT
ATOM      1  O   HOH     1      23.565  15.066   1.918  0.00  0.00    +0.000 OA
ENDROOT
TORSDOF 0
REMARK  Name = ../refined-set-2016/4a4q/4a4q_pocket.pdb
REMARK  241 active torsions:
REMARK  status: ('A' for Active; 'I' for Inactive)
REMARK    1  A    between atoms: _1  and  _3
REMARK    2  A    between atoms: _3  and  _4
REMARK    3  A    between atoms: _3  and  _6
REMARK    4  A    between atoms: _6  and  _7
REMARK    5  A    between atoms: _7  and  _8
REMARK    6  A    between atoms: _8  and  _9
REMARK    7  A    between atoms: _18  and  _20
REMARK    8  A    between atoms: _20  and  _21
REMARK    9  A    between atoms: _20  and  _23
REMARK   10  A    between atoms: _23  and  _24
REMARK   11  A    between atoms: _27  and  _29
REMARK   12  A    between atoms: _29  and  _30
REMARK   13  A    between atoms: _29  and  _32
REMARK   14  A    between atoms: _32  and  _33
REMARK   15  A    between atoms: _36  and  _38
REMARK   16  A    between atoms: _38  and  _39
REMARK   17  A    between atoms: _38  and  _41
REMARK   18  A    between atoms: _41  and  _42
REMARK   19  A    between atoms: _45  and  _47
REMARK   20  A    between atoms: _47  and  _48
REMARK   21  A    between atoms: _47  and  _50
REMARK   22  A    between atoms: _50  and  _51
REMARK   23  A    between atoms: _54  and  _56
REMARK   24  A    between atoms: _56  and  _57
REMARK   25  A    between atoms: _59  and  _61
REMARK   26  A    between atoms: _61  and  _62
REMARK   27  A    between atoms: _65  and  _67
REMARK   28  A    between atoms: _67  and  _68
REMARK   29  A    between atoms: _67  and  _70
REMARK   30  A    between atoms: _70  and  _71
REMARK   31  A    between atoms: _74  and  _76
REMARK   32  A    between atoms: _76  and  _77
REMARK   33  A    between atoms: _76  and  _79
REMARK   34  A    between atoms: _79  and  _80
REMARK   35  A    between atoms: _83  and  _85
REMARK   36  A    between atoms: _85  and  _86
REMARK   37  A    between atoms: _85  and  _88
REMARK   38  A    between atoms: _88  and  _89
REMARK   39  A    between atoms: _92  and  _94
REMARK   40  A    between atoms: _94  and  _95
REMARK   41  A    between atoms: _94  and  _97
REMARK   42  A    between atoms: _100  and  _102
REMARK   43  A    between atoms: _102  and  _103
REMARK   44  A    between atoms: _102  and  _105
REMARK   45  A    between atoms: _105  and  _106
REMARK   46  A    between atoms: _109  and  _111
REMARK   47  A    between atoms: _111  and  _112
REMARK   48  A    between atoms: _111  and  _114
REMARK   49  A    between atoms: _114  and  _115
REMARK   50  A    between atoms: _115  and  _116
REMARK   51  A    between atoms: _119  and  _121
REMARK   52  A    between atoms: _121  and  _122
REMARK   53  A    between atoms: _121  and  _124
REMARK   54  A    between atoms: _124  and  _125
REMARK   55  A    between atoms: _125  and  _126
REMARK   56  A    between atoms: _126  and  _127
REMARK   57  A    between atoms: _127  and  _128
REMARK   58  A    between atoms: _132  and  _134
REMARK   59  A    between atoms: _134  and  _135
REMARK   60  A    between atoms: _134  and  _137
REMARK   61  A    between atoms: _137  and  _138
REMARK   62  A    between atoms: _138  and  _139
REMARK   63  A    between atoms: _141  and  _143
REMARK   64  A    between atoms: _143  and  _144
REMARK   65  A    between atoms: _143  and  _146
REMARK   66  A    between atoms: _146  and  _147
REMARK   67  A    between atoms: _150  and  _152
REMARK   68  A    between atoms: _152  and  _153
REMARK   69  A    between atoms: _155  and  _157
REMARK   70  A    between atoms: _157  and  _158
REMARK   71  A    between atoms: _160  and  _162
REMARK   72  A    between atoms: _162  and  _163
REMARK   73  A    between atoms: _162  and  _165
REMARK   74  A    between atoms: _165  and  _166
REMARK   75  A    between atoms: _169  and  _171
REMARK   76  A    between atoms: _171  and  _172
REMARK   77  A    between atoms: _174  and  _176
REMARK   78  A    between atoms: _176  and  _177
REMARK   79  A    between atoms: _179  and  _181
REMARK   80  A    between atoms: _181  and  _182
REMARK   81  A    between atoms: _181  and  _184
REMARK   82  A    between atoms: _184  and  _185
REMARK   83  A    between atoms: _191  and  _193
REMARK   84  A    between atoms: _193  and  _194
REMARK   85  A    between atoms: _193  and  _196
REMARK   86  A    between atoms: _196  and  _197
REMARK   87  A    between atoms: _200  and  _202
REMARK   88  A    between atoms: _202  and  _203
REMARK   89  A    between atoms: _202  and  _205
REMARK   90  A    between atoms: _208  and  _210
REMARK   91  A    between atoms: _210  and  _211
REMARK   92  A    between atoms: _210  and  _213
REMARK   93  A    between atoms: _213  and  _214
REMARK   94  A    between atoms: _217  and  _219
REMARK   95  A    between atoms: _219  and  _220
REMARK   96  A    between atoms: _219  and  _222
REMARK   97  A    between atoms: _222  and  _223
REMARK   98  A    between atoms: _227  and  _228
REMARK   99  A    between atoms: _233  and  _235
REMARK  100  A    between atoms: _235  and  _236
REMARK  101  A    between atoms: _235  and  _238
REMARK  102  A    between atoms: _238  and  _239
REMARK  103  A    between atoms: _242  and  _244
REMARK  104  A    between atoms: _244  and  _245
REMARK  105  A    between atoms: _244  and  _247
REMARK  106  A    between atoms: _247  and  _248
REMARK  107  A    between atoms: _253  and  _255
REMARK  108  A    between atoms: _255  and  _256
REMARK  109  A    between atoms: _255  and  _258
REMARK  110  A    between atoms: _261  and  _263
REMARK  111  A    between atoms: _263  and  _264
REMARK  112  A    between atoms: _263  and  _266
REMARK  113  A    between atoms: _266  and  _267
REMARK  114  A    between atoms: _270  and  _272
REMARK  115  A    between atoms: _272  and  _273
REMARK  116  A    between atoms: _275  and  _277
REMARK  117  A    between atoms: _277  and  _278
REMARK  118  A    between atoms: _277  and  _280
REMARK  119  A    between atoms: _280  and  _281
REMARK  120  A    between atoms: _281  and  _282
REMARK  121  A    between atoms: _282  and  _283
REMARK  122  A    between atoms: _292  and  _294
REMARK  123  A    between atoms: _294  and  _295
REMARK  124  A    between atoms: _294  and  _297
REMARK  125  A    between atoms: _297  and  _298
REMARK  126  A    between atoms: _303  and  _305
REMARK  127  A    between atoms: _305  and  _306
REMARK  128  A    between atoms: _305  and  _308
REMARK  129  A    between atoms: _308  and  _309
REMARK  130  A    between atoms: _309  and  _310
REMARK  131  A    between atoms: _310  and  _311
REMARK  132  A    between atoms: _320  and  _322
REMARK  133  A    between atoms: _322  and  _323
REMARK  134  A    between atoms: _322  and  _325
REMARK  135  A    between atoms: _325  and  _326
REMARK  136  A    between atoms: _329  and  _331
REMARK  137  A    between atoms: _331  and  _332
REMARK  138  A    between atoms: _331  and  _334
REMARK  139  A    between atoms: _334  and  _335
REMARK  140  A    between atoms: _338  and  _340
REMARK  141  A    between atoms: _340  and  _341
REMARK  142  A    between atoms: _340  and  _343
REMARK  143  A    between atoms: _343  and  _344
REMARK  144  A    between atoms: _347  and  _349
REMARK  145  A    between atoms: _349  and  _350
REMARK  146  A    between atoms: _349  and  _352
REMARK  147  A    between atoms: _352  and  _353
REMARK  148  A    between atoms: _356  and  _358
REMARK  149  A    between atoms: _358  and  _359
REMARK  150  A    between atoms: _358  and  _361
REMARK  151  A    between atoms: _361  and  _362
REMARK  152  A    between atoms: _365  and  _367
REMARK  153  A    between atoms: _367  and  _368
REMARK  154  A    between atoms: _370  and  _372
REMARK  155  A    between atoms: _372  and  _373
REMARK  156  A    between atoms: _376  and  _378
REMARK  157  A    between atoms: _378  and  _379
REMARK  158  A    between atoms: _378  and  _381
REMARK  159  A    between atoms: _381  and  _382
REMARK  160  A    between atoms: _385  and  _387
REMARK  161  A    between atoms: _387  and  _388
REMARK  162  A    between atoms: _387  and  _390
REMARK  163  A    between atoms: _390  and  _391
REMARK  164  A    between atoms: _394  and  _396
REMARK  165  A    between atoms: _396  and  _397
REMARK  166  A    between atoms: _396  and  _399
REMARK  167  A    between atoms: _399  and  _400
REMARK  168  A    between atoms: _403  and  _405
REMARK  169  A    between atoms: _405  and  _406
REMARK  170  A    between atoms: _405  and  _408
REMARK  171  A    between atoms: _411  and  _413
REMARK  172  A    between atoms: _413  and  _414
REMARK  173  A    between atoms: _413  and  _416
REMARK  174  A    between atoms: _416  and  _417
REMARK  175  A    between atoms: _417  and  _418
REMARK  176  A    between atoms: _418  and  _419
REMARK  177  A    between atoms: _419  and  _420
REMARK  178  A    between atoms: _424  and  _426
REMARK  179  A    between atoms: _426  and  _427
REMARK  180  A    between atoms: _426  and  _429
REMARK  181  A    between atoms: _429  and  _430
REMARK  182  A    between atoms: _430  and  _431
REMARK  183  A    between atoms: _433  and  _435
REMARK  184  A    between atoms: _435  and  _436
REMARK  185  A    between atoms: _435  and  _438
REMARK  186  A    between atoms: _438  and  _439
REMARK  187  A    between atoms: _442  and  _444
REMARK  188  A    between atoms: _444  and  _445
REMARK  189  A    between atoms: _447  and  _449
REMARK  190  A    between atoms: _449  and  _450
REMARK  191  A    between atoms: _452  and  _454
REMARK  192  A    between atoms: _454  and  _455
REMARK  193  A    between atoms: _454  and  _457
REMARK  194  A    between atoms: _457  and  _458
REMARK  195  A    between atoms: _461  and  _463
REMARK  196  A    between atoms: _463  and  _464
REMARK  197  A    between atoms: _466  and  _468
REMARK  198  A    between atoms: _468  and  _469
REMARK  199  A    between atoms: _471  and  _473
REMARK  200  A    between atoms: _473  and  _474
REMARK  201  A    between atoms: _473  and  _476
REMARK  202  A    between atoms: _476  and  _477
REMARK  203  A    between atoms: _483  and  _485
REMARK  204  A    between atoms: _485  and  _486
REMARK  205  A    between atoms: _485  and  _488
REMARK  206  A    between atoms: _488  and  _489
REMARK  207  A    between atoms: _492  and  _494
REMARK  208  A    between atoms: _494  and  _495
REMARK  209  A    between atoms: _494  and  _497
REMARK  210  A    between atoms: _500  and  _502
REMARK  211  A    between atoms: _502  and  _503
REMARK  212  A    between atoms: _502  and  _505
REMARK  213  A    between atoms: _505  and  _506
REMARK  214  A    between atoms: _509  and  _511
REMARK  215  A    between atoms: _511  and  _512
REMARK  216  A    between atoms: _511  and  _514
REMARK  217  A    between atoms: _514  and  _515
REMARK  218  A    between atoms: _519  and  _520
REMARK  219  A    between atoms: _525  and  _527
REMARK  220  A    between atoms: _527  and  _528
REMARK  221  A    between atoms: _527  and  _530
REMARK  222  A    between atoms: _530  and  _531
REMARK  223  A    between atoms: _534  and  _536
REMARK  224  A    between atoms: _536  and  _537
REMARK  225  A    between atoms: _536  and  _539
REMARK  226  A    between atoms: _539  and  _540
REMARK  227  A    between atoms: _545  and  _547
REMARK  228  A    between atoms: _547  and  _548
REMARK  229  A    between atoms: _547  and  _550
REMARK  230  A    between atoms: _553  and  _555
REMARK  231  A    between atoms: _555  and  _556
REMARK  232  A    between atoms: _555  and  _558
REMARK  233  A    between atoms: _558  and  _559
REMARK  234  A    between atoms: _562  and  _564
REMARK  235  A    between atoms: _564  and  _565
REMARK  236  A    between atoms: _567  and  _569
REMARK  237  A    between atoms: _569  and  _570
REMARK  238  A    between atoms: _569  and  _572
REMARK  239  A    between atoms: _572  and  _573
REMARK  240  A    between atoms: _573  and  _574
REMARK  241  A    between atoms: _574  and  _575
REMARK                            x       y       z     vdW  Elec       q    Type
REMARK                         _______ _______ _______ _____ _____    ______ ____
ROOT
ATOM      1  O   HOH     1      19.513  15.712   3.742  0.00  0.00    +0.000 OA
ENDROOT
TORSDOF 0
REMARK  Name = ../refined-set-2016/4a4q/4a4q_pocket.pdb
REMARK  241 active torsions:
REMARK  status: ('A' for Active; 'I' for Inactive)
REMARK    1  A    between atoms: _1  and  _3
REMARK    2  A    between atoms: _3  and  _4
REMARK    3  A    between atoms: _3  and  _6
REMARK    4  A    between atoms: _6  and  _7
REMARK    5  A    between atoms: _7  and  _8
REMARK    6  A    between atoms: _8  and  _9
REMARK    7  A    between atoms: _18  and  _20
REMARK    8  A    between atoms: _20  and  _21
REMARK    9  A    between atoms: _20  and  _23
REMARK   10  A    between atoms: _23  and  _24
REMARK   11  A    between atoms: _27  and  _29
REMARK   12  A    between atoms: _29  and  _30
REMARK   13  A    between atoms: _29  and  _32
REMARK   14  A    between atoms: _32  and  _33
REMARK   15  A    between atoms: _36  and  _38
REMARK   16  A    between atoms: _38  and  _39
REMARK   17  A    between atoms: _38  and  _41
REMARK   18  A    between atoms: _41  and  _42
REMARK   19  A    between atoms: _45  and  _47
REMARK   20  A    between atoms: _47  and  _48
REMARK   21  A    between atoms: _47  and  _50
REMARK   22  A    between atoms: _50  and  _51
REMARK   23  A    between atoms: _54  and  _56
REMARK   24  A    between atoms: _56  and  _57
REMARK   25  A    between atoms: _59  and  _61
REMARK   26  A    between atoms: _61  and  _62
REMARK   27  A    between atoms: _65  and  _67
REMARK   28  A    between atoms: _67  and  _68
REMARK   29  A    between atoms: _67  and  _70
REMARK   30  A    between atoms: _70  and  _71
REMARK   31  A    between atoms: _74  and  _76
REMARK   32  A    between atoms: _76  and  _77
REMARK   33  A    between atoms: _76  and  _79
REMARK   34  A    between atoms: _79  and  _80
REMARK   35  A    between atoms: _83  and  _85
REMARK   36  A    between atoms: _85  and  _86
REMARK   37  A    between atoms: _85  and  _88
REMARK   38  A    between atoms: _88  and  _89
REMARK   39  A    between atoms: _92  and  _94
REMARK   40  A    between atoms: _94  and  _95
REMARK   41  A    between atoms: _94  and  _97
REMARK   42  A    between atoms: _100  and  _102
REMARK   43  A    between atoms: _102  and  _103
REMARK   44  A    between atoms: _102  and  _105
REMARK   45  A    between atoms: _105  and  _106
REMARK   46  A    between atoms: _109  and  _111
REMARK   47  A    between atoms: _111  and  _112
REMARK   48  A    between atoms: _111  and  _114
REMARK   49  A    between atoms: _114  and  _115
REMARK   50  A    between atoms: _115  and  _116
REMARK   51  A    between atoms: _119  and  _121
REMARK   52  A    between atoms: _121  and  _122
REMARK   53  A    between atoms: _121  and  _124
REMARK   54  A    between atoms: _124  and  _125
REMARK   55  A    between atoms: _125  and  _126
REMARK   56  A    between atoms: _126  and  _127
REMARK   57  A    between atoms: _127  and  _128
REMARK   58  A    between atoms: _132  and  _134
REMARK   59  A    between atoms: _134  and  _135
REMARK   60  A    between atoms: _134  and  _137
REMARK   61  A    between atoms: _137  and  _138
REMARK   62  A    between atoms: _138  and  _139
REMARK   63  A    between atoms: _141  and  _143
REMARK   64  A    between atoms: _143  and  _144
REMARK   65  A    between atoms: _143  and  _146
REMARK   66  A    between atoms: _146  and  _147
REMARK   67  A    between atoms: _150  and  _152
REMARK   68  A    between atoms: _152  and  _153
REMARK   69  A    between atoms: _155  and  _157
REMARK   70  A    between atoms: _157  and  _158
REMARK   71  A    between atoms: _160  and  _162
REMARK   72  A    between atoms: _162  and  _163
REMARK   73  A    between atoms: _162  and  _165
REMARK   74  A    between atoms: _165  and  _166
REMARK   75  A    between atoms: _169  and  _171
REMARK   76  A    between atoms: _171  and  _172
REMARK   77  A    between atoms: _174  and  _176
REMARK   78  A    between atoms: _176  and  _177
REMARK   79  A    between atoms: _179  and  _181
REMARK   80  A    between atoms: _181  and  _182
REMARK   81  A    between atoms: _181  and  _184
REMARK   82  A    between atoms: _184  and  _185
REMARK   83  A    between atoms: _191  and  _193
REMARK   84  A    between atoms: _193  and  _194
REMARK   85  A    between atoms: _193  and  _196
REMARK   86  A    between atoms: _196  and  _197
REMARK   87  A    between atoms: _200  and  _202
REMARK   88  A    between atoms: _202  and  _203
REMARK   89  A    between atoms: _202  and  _205
REMARK   90  A    between atoms: _208  and  _210
REMARK   91  A    between atoms: _210  and  _211
REMARK   92  A    between atoms: _210  and  _213
REMARK   93  A    between atoms: _213  and  _214
REMARK   94  A    between atoms: _217  and  _219
REMARK   95  A    between atoms: _219  and  _220
REMARK   96  A    between atoms: _219  and  _222
REMARK   97  A    between atoms: _222  and  _223
REMARK   98  A    between atoms: _227  and  _228
REMARK   99  A    between atoms: _233  and  _235
REMARK  100  A    between atoms: _235  and  _236
REMARK  101  A    between atoms: _235  and  _238
REMARK  102  A    between atoms: _238  and  _239
REMARK  103  A    between atoms: _242  and  _244
REMARK  104  A    between atoms: _244  and  _245
REMARK  105  A    between atoms: _244  and  _247
REMARK  106  A    between atoms: _247  and  _248
REMARK  107  A    between atoms: _253  and  _255
REMARK  108  A    between atoms: _255  and  _256
REMARK  109  A    between atoms: _255  and  _258
REMARK  110  A    between atoms: _261  and  _263
REMARK  111  A    between atoms: _263  and  _264
REMARK  112  A    between atoms: _263  and  _266
REMARK  113  A    between atoms: _266  and  _267
REMARK  114  A    between atoms: _270  and  _272
REMARK  115  A    between atoms: _272  and  _273
REMARK  116  A    between atoms: _275  and  _277
REMARK  117  A    between atoms: _277  and  _278
REMARK  118  A    between atoms: _277  and  _280
REMARK  119  A    between atoms: _280  and  _281
REMARK  120  A    between atoms: _281  and  _282
REMARK  121  A    between atoms: _282  and  _283
REMARK  122  A    between atoms: _292  and  _294
REMARK  123  A    between atoms: _294  and  _295
REMARK  124  A    between atoms: _294  and  _297
REMARK  125  A    between atoms: _297  and  _298
REMARK  126  A    between atoms: _303  and  _305
REMARK  127  A    between atoms: _305  and  _306
REMARK  128  A    between atoms: _305  and  _308
REMARK  129  A    between atoms: _308  and  _309
REMARK  130  A    between atoms: _309  and  _310
REMARK  131  A    between atoms: _310  and  _311
REMARK  132  A    between atoms: _320  and  _322
REMARK  133  A    between atoms: _322  and  _323
REMARK  134  A    between atoms: _322  and  _325
REMARK  135  A    between atoms: _325  and  _326
REMARK  136  A    between atoms: _329  and  _331
REMARK  137  A    between atoms: _331  and  _332
REMARK  138  A    between atoms: _331  and  _334
REMARK  139  A    between atoms: _334  and  _335
REMARK  140  A    between atoms: _338  and  _340
REMARK  141  A    between atoms: _340  and  _341
REMARK  142  A    between atoms: _340  and  _343
REMARK  143  A    between atoms: _343  and  _344
REMARK  144  A    between atoms: _347  and  _349
REMARK  145  A    between atoms: _349  and  _350
REMARK  146  A    between atoms: _349  and  _352
REMARK  147  A    between atoms: _352  and  _353
REMARK  148  A    between atoms: _356  and  _358
REMARK  149  A    between atoms: _358  and  _359
REMARK  150  A    between atoms: _358  and  _361
REMARK  151  A    between atoms: _361  and  _362
REMARK  152  A    between atoms: _365  and  _367
REMARK  153  A    between atoms: _367  and  _368
REMARK  154  A    between atoms: _370  and  _372
REMARK  155  A    between atoms: _372  and  _373
REMARK  156  A    between atoms: _376  and  _378
REMARK  157  A    between atoms: _378  and  _379
REMARK  158  A    between atoms: _378  and  _381
REMARK  159  A    between atoms: _381  and  _382
REMARK  160  A    between atoms: _385  and  _387
REMARK  161  A    between atoms: _387  and  _388
REMARK  162  A    between atoms: _387  and  _390
REMARK  163  A    between atoms: _390  and  _391
REMARK  164  A    between atoms: _394  and  _396
REMARK  165  A    between atoms: _396  and  _397
REMARK  166  A    between atoms: _396  and  _399
REMARK  167  A    between atoms: _399  and  _400
REMARK  168  A    between atoms: _403  and  _405
REMARK  169  A    between atoms: _405  and  _406
REMARK  170  A    between atoms: _405  and  _408
REMARK  171  A    between atoms: _411  and  _413
REMARK  172  A    between atoms: _413  and  _414
REMARK  173  A    between atoms: _413  and  _416
REMARK  174  A    between atoms: _416  and  _417
REMARK  175  A    between atoms: _417  and  _418
REMARK  176  A    between atoms: _418  and  _419
REMARK  177  A    between atoms: _419  and  _420
REMARK  178  A    between atoms: _424  and  _426
REMARK  179  A    between atoms: _426  and  _427
REMARK  180  A    between atoms: _426  and  _429
REMARK  181  A    between atoms: _429  and  _430
REMARK  182  A    between atoms: _430  and  _431
REMARK  183  A    between atoms: _433  and  _435
REMARK  184  A    between atoms: _435  and  _436
REMARK  185  A    between atoms: _435  and  _438
REMARK  186  A    between atoms: _438  and  _439
REMARK  187  A    between atoms: _442  and  _444
REMARK  188  A    between atoms: _444  and  _445
REMARK  189  A    between atoms: _447  and  _449
REMARK  190  A    between atoms: _449  and  _450
REMARK  191  A    between atoms: _452  and  _454
REMARK  192  A    between atoms: _454  and  _455
REMARK  193  A    between atoms: _454  and  _457
REMARK  194  A    between atoms: _457  and  _458
REMARK  195  A    between atoms: _461  and  _463
REMARK  196  A    between atoms: _463  and  _464
REMARK  197  A    between atoms: _466  and  _468
REMARK  198  A    between atoms: _468  and  _469
REMARK  199  A    between atoms: _471  and  _473
REMARK  200  A    between atoms: _473  and  _474
REMARK  201  A    between atoms: _473  and  _476
REMARK  202  A    between atoms: _476  and  _477
REMARK  203  A    between atoms: _483  and  _485
REMARK  204  A    between atoms: _485  and  _486
REMARK  205  A    between atoms: _485  and  _488
REMARK  206  A    between atoms: _488  and  _489
REMARK  207  A    between atoms: _492  and  _494
REMARK  208  A    between atoms: _494  and  _495
REMARK  209  A    between atoms: _494  and  _497
REMARK  210  A    between atoms: _500  and  _502
REMARK  211  A    between atoms: _502  and  _503
REMARK  212  A    between atoms: _502  and  _505
REMARK  213  A    between atoms: _505  and  _506
REMARK  214  A    between atoms: _509  and  _511
REMARK  215  A    between atoms: _511  and  _512
REMARK  216  A    between atoms: _511  and  _514
REMARK  217  A    between atoms: _514  and  _515
REMARK  218  A    between atoms: _519  and  _520
REMARK  219  A    between atoms: _525  and  _527
REMARK  220  A    between atoms: _527  and  _528
REMARK  221  A    between atoms: _527  and  _530
REMARK  222  A    between atoms: _530  and  _531
REMARK  223  A    between atoms: _534  and  _536
REMARK  224  A    between atoms: _536  and  _537
REMARK  225  A    between atoms: _536  and  _539
REMARK  226  A    between atoms: _539  and  _540
REMARK  227  A    between atoms: _545  and  _547
REMARK  228  A    between atoms: _547  and  _548
REMARK  229  A    between atoms: _547  and  _550
REMARK  230  A    between atoms: _553  and  _555
REMARK  231  A    between atoms: _555  and  _556
REMARK  232  A    between atoms: _555  and  _558
REMARK  233  A    between atoms: _558  and  _559
REMARK  234  A    between atoms: _562  and  _564
REMARK  235  A    between atoms: _564  and  _565
REMARK  236  A    between atoms: _567  and  _569
REMARK  237  A    between atoms: _569  and  _570
REMARK  238  A    between atoms: _569  and  _572
REMARK  239  A    between atoms: _572  and  _573
REMARK  240  A    between atoms: _573  and  _574
REMARK  241  A    between atoms: _574  and  _575
REMARK                            x       y       z     vdW  Elec       q    Type
REMARK                         _______ _______ _______ _____ _____    ______ ____
ROOT
ATOM      1  O   HOH     1      20.135  16.254  -3.801  0.00  0.00    +0.000 OA
ENDROOT
TORSDOF 0
REMARK  Name = ../refined-set-2016/4a4q/4a4q_pocket.pdb
REMARK  241 active torsions:
REMARK  status: ('A' for Active; 'I' for Inactive)
REMARK    1  A    between atoms: _1  and  _3
REMARK    2  A    between atoms: _3  and  _4
REMARK    3  A    between atoms: _3  and  _6
REMARK    4  A    between atoms: _6  and  _7
REMARK    5  A    between atoms: _7  and  _8
REMARK    6  A    between atoms: _8  and  _9
REMARK    7  A    between atoms: _18  and  _20
REMARK    8  A    between atoms: _20  and  _21
REMARK    9  A    between atoms: _20  and  _23
REMARK   10  A    between atoms: _23  and  _24
REMARK   11  A    between atoms: _27  and  _29
REMARK   12  A    between atoms: _29  and  _30
REMARK   13  A    between atoms: _29  and  _32
REMARK   14  A    between atoms: _32  and  _33
REMARK   15  A    between atoms: _36  and  _38
REMARK   16  A    between atoms: _38  and  _39
REMARK   17  A    between atoms: _38  and  _41
REMARK   18  A    between atoms: _41  and  _42
REMARK   19  A    between atoms: _45  and  _47
REMARK   20  A    between atoms: _47  and  _48
REMARK   21  A    between atoms: _47  and  _50
REMARK   22  A    between atoms: _50  and  _51
REMARK   23  A    between atoms: _54  and  _56
REMARK   24  A    between atoms: _56  and  _57
REMARK   25  A    between atoms: _59  and  _61
REMARK   26  A    between atoms: _61  and  _62
REMARK   27  A    between atoms: _65  and  _67
REMARK   28  A    between atoms: _67  and  _68
REMARK   29  A    between atoms: _67  and  _70
REMARK   30  A    between atoms: _70  and  _71
REMARK   31  A    between atoms: _74  and  _76
REMARK   32  A    between atoms: _76  and  _77
REMARK   33  A    between atoms: _76  and  _79
REMARK   34  A    between atoms: _79  and  _80
REMARK   35  A    between atoms: _83  and  _85
REMARK   36  A    between atoms: _85  and  _86
REMARK   37  A    between atoms: _85  and  _88
REMARK   38  A    between atoms: _88  and  _89
REMARK   39  A    between atoms: _92  and  _94
REMARK   40  A    between atoms: _94  and  _95
REMARK   41  A    between atoms: _94  and  _97
REMARK   42  A    between atoms: _100  and  _102
REMARK   43  A    between atoms: _102  and  _103
REMARK   44  A    between atoms: _102  and  _105
REMARK   45  A    between atoms: _105  and  _106
REMARK   46  A    between atoms: _109  and  _111
REMARK   47  A    between atoms: _111  and  _112
REMARK   48  A    between atoms: _111  and  _114
REMARK   49  A    between atoms: _114  and  _115
REMARK   50  A    between atoms: _115  and  _116
REMARK   51  A    between atoms: _119  and  _121
REMARK   52  A    between atoms: _121  and  _122
REMARK   53  A    between atoms: _121  and  _124
REMARK   54  A    between atoms: _124  and  _125
REMARK   55  A    between atoms: _125  and  _126
REMARK   56  A    between atoms: _126  and  _127
REMARK   57  A    between atoms: _127  and  _128
REMARK   58  A    between atoms: _132  and  _134
REMARK   59  A    between atoms: _134  and  _135
REMARK   60  A    between atoms: _134  and  _137
REMARK   61  A    between atoms: _137  and  _138
REMARK   62  A    between atoms: _138  and  _139
REMARK   63  A    between atoms: _141  and  _143
REMARK   64  A    between atoms: _143  and  _144
REMARK   65  A    between atoms: _143  and  _146
REMARK   66  A    between atoms: _146  and  _147
REMARK   67  A    between atoms: _150  and  _152
REMARK   68  A    between atoms: _152  and  _153
REMARK   69  A    between atoms: _155  and  _157
REMARK   70  A    between atoms: _157  and  _158
REMARK   71  A    between atoms: _160  and  _162
REMARK   72  A    between atoms: _162  and  _163
REMARK   73  A    between atoms: _162  and  _165
REMARK   74  A    between atoms: _165  and  _166
REMARK   75  A    between atoms: _169  and  _171
REMARK   76  A    between atoms: _171  and  _172
REMARK   77  A    between atoms: _174  and  _176
REMARK   78  A    between atoms: _176  and  _177
REMARK   79  A    between atoms: _179  and  _181
REMARK   80  A    between atoms: _181  and  _182
REMARK   81  A    between atoms: _181  and  _184
REMARK   82  A    between atoms: _184  and  _185
REMARK   83  A    between atoms: _191  and  _193
REMARK   84  A    between atoms: _193  and  _194
REMARK   85  A    between atoms: _193  and  _196
REMARK   86  A    between atoms: _196  and  _197
REMARK   87  A    between atoms: _200  and  _202
REMARK   88  A    between atoms: _202  and  _203
REMARK   89  A    between atoms: _202  and  _205
REMARK   90  A    between atoms: _208  and  _210
REMARK   91  A    between atoms: _210  and  _211
REMARK   92  A    between atoms: _210  and  _213
REMARK   93  A    between atoms: _213  and  _214
REMARK   94  A    between atoms: _217  and  _219
REMARK   95  A    between atoms: _219  and  _220
REMARK   96  A    between atoms: _219  and  _222
REMARK   97  A    between atoms: _222  and  _223
REMARK   98  A    between atoms: _227  and  _228
REMARK   99  A    between atoms: _233  and  _235
REMARK  100  A    between atoms: _235  and  _236
REMARK  101  A    between atoms: _235  and  _238
REMARK  102  A    between atoms: _238  and  _239
REMARK  103  A    between atoms: _242  and  _244
REMARK  104  A    between atoms: _244  and  _245
REMARK  105  A    between atoms: _244  and  _247
REMARK  106  A    between atoms: _247  and  _248
REMARK  107  A    between atoms: _253  and  _255
REMARK  108  A    between atoms: _255  and  _256
REMARK  109  A    between atoms: _255  and  _258
REMARK  110  A    between atoms: _261  and  _263
REMARK  111  A    between atoms: _263  and  _264
REMARK  112  A    between atoms: _263  and  _266
REMARK  113  A    between atoms: _266  and  _267
REMARK  114  A    between atoms: _270  and  _272
REMARK  115  A    between atoms: _272  and  _273
REMARK  116  A    between atoms: _275  and  _277
REMARK  117  A    between atoms: _277  and  _278
REMARK  118  A    between atoms: _277  and  _280
REMARK  119  A    between atoms: _280  and  _281
REMARK  120  A    between atoms: _281  and  _282
REMARK  121  A    between atoms: _282  and  _283
REMARK  122  A    between atoms: _292  and  _294
REMARK  123  A    between atoms: _294  and  _295
REMARK  124  A    between atoms: _294  and  _297
REMARK  125  A    between atoms: _297  and  _298
REMARK  126  A    between atoms: _303  and  _305
REMARK  127  A    between atoms: _305  and  _306
REMARK  128  A    between atoms: _305  and  _308
REMARK  129  A    between atoms: _308  and  _309
REMARK  130  A    between atoms: _309  and  _310
REMARK  131  A    between atoms: _310  and  _311
REMARK  132  A    between atoms: _320  and  _322
REMARK  133  A    between atoms: _322  and  _323
REMARK  134  A    between atoms: _322  and  _325
REMARK  135  A    between atoms: _325  and  _326
REMARK  136  A    between atoms: _329  and  _331
REMARK  137  A    between atoms: _331  and  _332
REMARK  138  A    between atoms: _331  and  _334
REMARK  139  A    between atoms: _334  and  _335
REMARK  140  A    between atoms: _338  and  _340
REMARK  141  A    between atoms: _340  and  _341
REMARK  142  A    between atoms: _340  and  _343
REMARK  143  A    between atoms: _343  and  _344
REMARK  144  A    between atoms: _347  and  _349
REMARK  145  A    between atoms: _349  and  _350
REMARK  146  A    between atoms: _349  and  _352
REMARK  147  A    between atoms: _352  and  _353
REMARK  148  A    between atoms: _356  and  _358
REMARK  149  A    between atoms: _358  and  _359
REMARK  150  A    between atoms: _358  and  _361
REMARK  151  A    between atoms: _361  and  _362
REMARK  152  A    between atoms: _365  and  _367
REMARK  153  A    between atoms: _367  and  _368
REMARK  154  A    between atoms: _370  and  _372
REMARK  155  A    between atoms: _372  and  _373
REMARK  156  A    between atoms: _376  and  _378
REMARK  157  A    between atoms: _378  and  _379
REMARK  158  A    between atoms: _378  and  _381
REMARK  159  A    between atoms: _381  and  _382
REMARK  160  A    between atoms: _385  and  _387
REMARK  161  A    between atoms: _387  and  _388
REMARK  162  A    between atoms: _387  and  _390
REMARK  163  A    between atoms: _390  and  _391
REMARK  164  A    between atoms: _394  and  _396
REMARK  165  A    between atoms: _396  and  _397
REMARK  166  A    between atoms: _396  and  _399
REMARK  167  A    between atoms: _399  and  _400
REMARK  168  A    between atoms: _403  and  _405
REMARK  169  A    between atoms: _405  and  _406
REMARK  170  A    between atoms: _405  and  _408
REMARK  171  A    between atoms: _411  and  _413
REMARK  172  A    between atoms: _413  and  _414
REMARK  173  A    between atoms: _413  and  _416
REMARK  174  A    between atoms: _416  and  _417
REMARK  175  A    between atoms: _417  and  _418
REMARK  176  A    between atoms: _418  and  _419
REMARK  177  A    between atoms: _419  and  _420
REMARK  178  A    between atoms: _424  and  _426
REMARK  179  A    between atoms: _426  and  _427
REMARK  180  A    between atoms: _426  and  _429
REMARK  181  A    between atoms: _429  and  _430
REMARK  182  A    between atoms: _430  and  _431
REMARK  183  A    between atoms: _433  and  _435
REMARK  184  A    between atoms: _435  and  _436
REMARK  185  A    between atoms: _435  and  _438
REMARK  186  A    between atoms: _438  and  _439
REMARK  187  A    between atoms: _442  and  _444
REMARK  188  A    between atoms: _444  and  _445
REMARK  189  A    between atoms: _447  and  _449
REMARK  190  A    between atoms: _449  and  _450
REMARK  191  A    between atoms: _452  and  _454
REMARK  192  A    between atoms: _454  and  _455
REMARK  193  A    between atoms: _454  and  _457
REMARK  194  A    between atoms: _457  and  _458
REMARK  195  A    between atoms: _461  and  _463
REMARK  196  A    between atoms: _463  and  _464
REMARK  197  A    between atoms: _466  and  _468
REMARK  198  A    between atoms: _468  and  _469
REMARK  199  A    between atoms: _471  and  _473
REMARK  200  A    between atoms: _473  and  _474
REMARK  201  A    between atoms: _473  and  _476
REMARK  202  A    between atoms: _476  and  _477
REMARK  203  A    between atoms: _483  and  _485
REMARK  204  A    between atoms: _485  and  _486
REMARK  205  A    between atoms: _485  and  _488
REMARK  206  A    between atoms: _488  and  _489
REMARK  207  A    between atoms: _492  and  _494
REMARK  208  A    between atoms: _494  and  _495
REMARK  209  A    between atoms: _494  and  _497
REMARK  210  A    between atoms: _500  and  _502
REMARK  211  A    between atoms: _502  and  _503
REMARK  212  A    between atoms: _502  and  _505
REMARK  213  A    between atoms: _505  and  _506
REMARK  214  A    between atoms: _509  and  _511
REMARK  215  A    between atoms: _511  and  _512
REMARK  216  A    between atoms: _511  and  _514
REMARK  217  A    between atoms: _514  and  _515
REMARK  218  A    between atoms: _519  and  _520
REMARK  219  A    between atoms: _525  and  _527
REMARK  220  A    between atoms: _527  and  _528
REMARK  221  A    between atoms: _527  and  _530
REMARK  222  A    between atoms: _530  and  _531
REMARK  223  A    between atoms: _534  and  _536
REMARK  224  A    between atoms: _536  and  _537
REMARK  225  A    between atoms: _536  and  _539
REMARK  226  A    between atoms: _539  and  _540
REMARK  227  A    between atoms: _545  and  _547
REMARK  228  A    between atoms: _547  and  _548
REMARK  229  A    between atoms: _547  and  _550
REMARK  230  A    between atoms: _553  and  _555
REMARK  231  A    between atoms: _555  and  _556
REMARK  232  A    between atoms: _555  and  _558
REMARK  233  A    between atoms: _558  and  _559
REMARK  234  A    between atoms: _562  and  _564
REMARK  235  A    between atoms: _564  and  _565
REMARK  236  A    between atoms: _567  and  _569
REMARK  237  A    between atoms: _569  and  _570
REMARK  238  A    between atoms: _569  and  _572
REMARK  239  A    between atoms: _572  and  _573
REMARK  240  A    between atoms: _573  and  _574
REMARK  241  A    between atoms: _574  and  _575
REMARK                            x       y       z     vdW  Elec       q    Type
REMARK                         _______ _______ _______ _____ _____    ______ ____
ROOT
ATOM      1  O   HOH     1      14.315  19.744  -5.616  0.00  0.00    +0.000 OA
ENDROOT
TORSDOF 0
REMARK  Name = ../refined-set-2016/4a4q/4a4q_pocket.pdb
REMARK  241 active torsions:
REMARK  status: ('A' for Active; 'I' for Inactive)
REMARK    1  A    between atoms: _1  and  _3
REMARK    2  A    between atoms: _3  and  _4
REMARK    3  A    between atoms: _3  and  _6
REMARK    4  A    between atoms: _6  and  _7
REMARK    5  A    between atoms: _7  and  _8
REMARK    6  A    between atoms: _8  and  _9
REMARK    7  A    between atoms: _18  and  _20
REMARK    8  A    between atoms: _20  and  _21
REMARK    9  A    between atoms: _20  and  _23
REMARK   10  A    between atoms: _23  and  _24
REMARK   11  A    between atoms: _27  and  _29
REMARK   12  A    between atoms: _29  and  _30
REMARK   13  A    between atoms: _29  and  _32
REMARK   14  A    between atoms: _32  and  _33
REMARK   15  A    between atoms: _36  and  _38
REMARK   16  A    between atoms: _38  and  _39
REMARK   17  A    between atoms: _38  and  _41
REMARK   18  A    between atoms: _41  and  _42
REMARK   19  A    between atoms: _45  and  _47
REMARK   20  A    between atoms: _47  and  _48
REMARK   21  A    between atoms: _47  and  _50
REMARK   22  A    between atoms: _50  and  _51
REMARK   23  A    between atoms: _54  and  _56
REMARK   24  A    between atoms: _56  and  _57
REMARK   25  A    between atoms: _59  and  _61
REMARK   26  A    between atoms: _61  and  _62
REMARK   27  A    between atoms: _65  and  _67
REMARK   28  A    between atoms: _67  and  _68
REMARK   29  A    between atoms: _67  and  _70
REMARK   30  A    between atoms: _70  and  _71
REMARK   31  A    between atoms: _74  and  _76
REMARK   32  A    between atoms: _76  and  _77
REMARK   33  A    between atoms: _76  and  _79
REMARK   34  A    between atoms: _79  and  _80
REMARK   35  A    between atoms: _83  and  _85
REMARK   36  A    between atoms: _85  and  _86
REMARK   37  A    between atoms: _85  and  _88
REMARK   38  A    between atoms: _88  and  _89
REMARK   39  A    between atoms: _92  and  _94
REMARK   40  A    between atoms: _94  and  _95
REMARK   41  A    between atoms: _94  and  _97
REMARK   42  A    between atoms: _100  and  _102
REMARK   43  A    between atoms: _102  and  _103
REMARK   44  A    between atoms: _102  and  _105
REMARK   45  A    between atoms: _105  and  _106
REMARK   46  A    between atoms: _109  and  _111
REMARK   47  A    between atoms: _111  and  _112
REMARK   48  A    between atoms: _111  and  _114
REMARK   49  A    between atoms: _114  and  _115
REMARK   50  A    between atoms: _115  and  _116
REMARK   51  A    between atoms: _119  and  _121
REMARK   52  A    between atoms: _121  and  _122
REMARK   53  A    between atoms: _121  and  _124
REMARK   54  A    between atoms: _124  and  _125
REMARK   55  A    between atoms: _125  and  _126
REMARK   56  A    between atoms: _126  and  _127
REMARK   57  A    between atoms: _127  and  _128
REMARK   58  A    between atoms: _132  and  _134
REMARK   59  A    between atoms: _134  and  _135
REMARK   60  A    between atoms: _134  and  _137
REMARK   61  A    between atoms: _137  and  _138
REMARK   62  A    between atoms: _138  and  _139
REMARK   63  A    between atoms: _141  and  _143
REMARK   64  A    between atoms: _143  and  _144
REMARK   65  A    between atoms: _143  and  _146
REMARK   66  A    between atoms: _146  and  _147
REMARK   67  A    between atoms: _150  and  _152
REMARK   68  A    between atoms: _152  and  _153
REMARK   69  A    between atoms: _155  and  _157
REMARK   70  A    between atoms: _157  and  _158
REMARK   71  A    between atoms: _160  and  _162
REMARK   72  A    between atoms: _162  and  _163
REMARK   73  A    between atoms: _162  and  _165
REMARK   74  A    between atoms: _165  and  _166
REMARK   75  A    between atoms: _169  and  _171
REMARK   76  A    between atoms: _171  and  _172
REMARK   77  A    between atoms: _174  and  _176
REMARK   78  A    between atoms: _176  and  _177
REMARK   79  A    between atoms: _179  and  _181
REMARK   80  A    between atoms: _181  and  _182
REMARK   81  A    between atoms: _181  and  _184
REMARK   82  A    between atoms: _184  and  _185
REMARK   83  A    between atoms: _191  and  _193
REMARK   84  A    between atoms: _193  and  _194
REMARK   85  A    between atoms: _193  and  _196
REMARK   86  A    between atoms: _196  and  _197
REMARK   87  A    between atoms: _200  and  _202
REMARK   88  A    between atoms: _202  and  _203
REMARK   89  A    between atoms: _202  and  _205
REMARK   90  A    between atoms: _208  and  _210
REMARK   91  A    between atoms: _210  and  _211
REMARK   92  A    between atoms: _210  and  _213
REMARK   93  A    between atoms: _213  and  _214
REMARK   94  A    between atoms: _217  and  _219
REMARK   95  A    between atoms: _219  and  _220
REMARK   96  A    between atoms: _219  and  _222
REMARK   97  A    between atoms: _222  and  _223
REMARK   98  A    between atoms: _227  and  _228
REMARK   99  A    between atoms: _233  and  _235
REMARK  100  A    between atoms: _235  and  _236
REMARK  101  A    between atoms: _235  and  _238
REMARK  102  A    between atoms: _238  and  _239
REMARK  103  A    between atoms: _242  and  _244
REMARK  104  A    between atoms: _244  and  _245
REMARK  105  A    between atoms: _244  and  _247
REMARK  106  A    between atoms: _247  and  _248
REMARK  107  A    between atoms: _253  and  _255
REMARK  108  A    between atoms: _255  and  _256
REMARK  109  A    between atoms: _255  and  _258
REMARK  110  A    between atoms: _261  and  _263
REMARK  111  A    between atoms: _263  and  _264
REMARK  112  A    between atoms: _263  and  _266
REMARK  113  A    between atoms: _266  and  _267
REMARK  114  A    between atoms: _270  and  _272
REMARK  115  A    between atoms: _272  and  _273
REMARK  116  A    between atoms: _275  and  _277
REMARK  117  A    between atoms: _277  and  _278
REMARK  118  A    between atoms: _277  and  _280
REMARK  119  A    between atoms: _280  and  _281
REMARK  120  A    between atoms: _281  and  _282
REMARK  121  A    between atoms: _282  and  _283
REMARK  122  A    between atoms: _292  and  _294
REMARK  123  A    between atoms: _294  and  _295
REMARK  124  A    between atoms: _294  and  _297
REMARK  125  A    between atoms: _297  and  _298
REMARK  126  A    between atoms: _303  and  _305
REMARK  127  A    between atoms: _305  and  _306
REMARK  128  A    between atoms: _305  and  _308
REMARK  129  A    between atoms: _308  and  _309
REMARK  130  A    between atoms: _309  and  _310
REMARK  131  A    between atoms: _310  and  _311
REMARK  132  A    between atoms: _320  and  _322
REMARK  133  A    between atoms: _322  and  _323
REMARK  134  A    between atoms: _322  and  _325
REMARK  135  A    between atoms: _325  and  _326
REMARK  136  A    between atoms: _329  and  _331
REMARK  137  A    between atoms: _331  and  _332
REMARK  138  A    between atoms: _331  and  _334
REMARK  139  A    between atoms: _334  and  _335
REMARK  140  A    between atoms: _338  and  _340
REMARK  141  A    between atoms: _340  and  _341
REMARK  142  A    between atoms: _340  and  _343
REMARK  143  A    between atoms: _343  and  _344
REMARK  144  A    between atoms: _347  and  _349
REMARK  145  A    between atoms: _349  and  _350
REMARK  146  A    between atoms: _349  and  _352
REMARK  147  A    between atoms: _352  and  _353
REMARK  148  A    between atoms: _356  and  _358
REMARK  149  A    between atoms: _358  and  _359
REMARK  150  A    between atoms: _358  and  _361
REMARK  151  A    between atoms: _361  and  _362
REMARK  152  A    between atoms: _365  and  _367
REMARK  153  A    between atoms: _367  and  _368
REMARK  154  A    between atoms: _370  and  _372
REMARK  155  A    between atoms: _372  and  _373
REMARK  156  A    between atoms: _376  and  _378
REMARK  157  A    between atoms: _378  and  _379
REMARK  158  A    between atoms: _378  and  _381
REMARK  159  A    between atoms: _381  and  _382
REMARK  160  A    between atoms: _385  and  _387
REMARK  161  A    between atoms: _387  and  _388
REMARK  162  A    between atoms: _387  and  _390
REMARK  163  A    between atoms: _390  and  _391
REMARK  164  A    between atoms: _394  and  _396
REMARK  165  A    between atoms: _396  and  _397
REMARK  166  A    between atoms: _396  and  _399
REMARK  167  A    between atoms: _399  and  _400
REMARK  168  A    between atoms: _403  and  _405
REMARK  169  A    between atoms: _405  and  _406
REMARK  170  A    between atoms: _405  and  _408
REMARK  171  A    between atoms: _411  and  _413
REMARK  172  A    between atoms: _413  and  _414
REMARK  173  A    between atoms: _413  and  _416
REMARK  174  A    between atoms: _416  and  _417
REMARK  175  A    between atoms: _417  and  _418
REMARK  176  A    between atoms: _418  and  _419
REMARK  177  A    between atoms: _419  and  _420
REMARK  178  A    between atoms: _424  and  _426
REMARK  179  A    between atoms: _426  and  _427
REMARK  180  A    between atoms: _426  and  _429
REMARK  181  A    between atoms: _429  and  _430
REMARK  182  A    between atoms: _430  and  _431
REMARK  183  A    between atoms: _433  and  _435
REMARK  184  A    between atoms: _435  and  _436
REMARK  185  A    between atoms: _435  and  _438
REMARK  186  A    between atoms: _438  and  _439
REMARK  187  A    between atoms: _442  and  _444
REMARK  188  A    between atoms: _444  and  _445
REMARK  189  A    between atoms: _447  and  _449
REMARK  190  A    between atoms: _449  and  _450
REMARK  191  A    between atoms: _452  and  _454
REMARK  192  A    between atoms: _454  and  _455
REMARK  193  A    between atoms: _454  and  _457
REMARK  194  A    between atoms: _457  and  _458
REMARK  195  A    between atoms: _461  and  _463
REMARK  196  A    between atoms: _463  and  _464
REMARK  197  A    between atoms: _466  and  _468
REMARK  198  A    between atoms: _468  and  _469
REMARK  199  A    between atoms: _471  and  _473
REMARK  200  A    between atoms: _473  and  _474
REMARK  201  A    between atoms: _473  and  _476
REMARK  202  A    between atoms: _476  and  _477
REMARK  203  A    between atoms: _483  and  _485
REMARK  204  A    between atoms: _485  and  _486
REMARK  205  A    between atoms: _485  and  _488
REMARK  206  A    between atoms: _488  and  _489
REMARK  207  A    between atoms: _492  and  _494
REMARK  208  A    between atoms: _494  and  _495
REMARK  209  A    between atoms: _494  and  _497
REMARK  210  A    between atoms: _500  and  _502
REMARK  211  A    between atoms: _502  and  _503
REMARK  212  A    between atoms: _502  and  _505
REMARK  213  A    between atoms: _505  and  _506
REMARK  214  A    between atoms: _509  and  _511
REMARK  215  A    between atoms: _511  and  _512
REMARK  216  A    between atoms: _511  and  _514
REMARK  217  A    between atoms: _514  and  _515
REMARK  218  A    between atoms: _519  and  _520
REMARK  219  A    between atoms: _525  and  _527
REMARK  220  A    between atoms: _527  and  _528
REMARK  221  A    between atoms: _527  and  _530
REMARK  222  A    between atoms: _530  and  _531
REMARK  223  A    between atoms: _534  and  _536
REMARK  224  A    between atoms: _536  and  _537
REMARK  225  A    between atoms: _536  and  _539
REMARK  226  A    between atoms: _539  and  _540
REMARK  227  A    between atoms: _545  and  _547
REMARK  228  A    between atoms: _547  and  _548
REMARK  229  A    between atoms: _547  and  _550
REMARK  230  A    between atoms: _553  and  _555
REMARK  231  A    between atoms: _555  and  _556
REMARK  232  A    between atoms: _555  and  _558
REMARK  233  A    between atoms: _558  and  _559
REMARK  234  A    between atoms: _562  and  _564
REMARK  235  A    between atoms: _564  and  _565
REMARK  236  A    between atoms: _567  and  _569
REMARK  237  A    between atoms: _569  and  _570
REMARK  238  A    between atoms: _569  and  _572
REMARK  239  A    between atoms: _572  and  _573
REMARK  240  A    between atoms: _573  and  _574
REMARK  241  A    between atoms: _574  and  _575
REMARK                            x       y       z     vdW  Elec       q    Type
REMARK                         _______ _______ _______ _____ _____    ______ ____
ROOT
ATOM      1  O   HOH     1       4.053  21.924  -4.429  0.00  0.00    +0.000 OA
ENDROOT
TORSDOF 0
REMARK  Name = ../refined-set-2016/4a4q/4a4q_pocket.pdb
REMARK  241 active torsions:
REMARK  status: ('A' for Active; 'I' for Inactive)
REMARK    1  A    between atoms: _1  and  _3
REMARK    2  A    between atoms: _3  and  _4
REMARK    3  A    between atoms: _3  and  _6
REMARK    4  A    between atoms: _6  and  _7
REMARK    5  A    between atoms: _7  and  _8
REMARK    6  A    between atoms: _8  and  _9
REMARK    7  A    between atoms: _18  and  _20
REMARK    8  A    between atoms: _20  and  _21
REMARK    9  A    between atoms: _20  and  _23
REMARK   10  A    between atoms: _23  and  _24
REMARK   11  A    between atoms: _27  and  _29
REMARK   12  A    between atoms: _29  and  _30
REMARK   13  A    between atoms: _29  and  _32
REMARK   14  A    between atoms: _32  and  _33
REMARK   15  A    between atoms: _36  and  _38
REMARK   16  A    between atoms: _38  and  _39
REMARK   17  A    between atoms: _38  and  _41
REMARK   18  A    between atoms: _41  and  _42
REMARK   19  A    between atoms: _45  and  _47
REMARK   20  A    between atoms: _47  and  _48
REMARK   21  A    between atoms: _47  and  _50
REMARK   22  A    between atoms: _50  and  _51
REMARK   23  A    between atoms: _54  and  _56
REMARK   24  A    between atoms: _56  and  _57
REMARK   25  A    between atoms: _59  and  _61
REMARK   26  A    between atoms: _61  and  _62
REMARK   27  A    between atoms: _65  and  _67
REMARK   28  A    between atoms: _67  and  _68
REMARK   29  A    between atoms: _67  and  _70
REMARK   30  A    between atoms: _70  and  _71
REMARK   31  A    between atoms: _74  and  _76
REMARK   32  A    between atoms: _76  and  _77
REMARK   33  A    between atoms: _76  and  _79
REMARK   34  A    between atoms: _79  and  _80
REMARK   35  A    between atoms: _83  and  _85
REMARK   36  A    between atoms: _85  and  _86
REMARK   37  A    between atoms: _85  and  _88
REMARK   38  A    between atoms: _88  and  _89
REMARK   39  A    between atoms: _92  and  _94
REMARK   40  A    between atoms: _94  and  _95
REMARK   41  A    between atoms: _94  and  _97
REMARK   42  A    between atoms: _100  and  _102
REMARK   43  A    between atoms: _102  and  _103
REMARK   44  A    between atoms: _102  and  _105
REMARK   45  A    between atoms: _105  and  _106
REMARK   46  A    between atoms: _109  and  _111
REMARK   47  A    between atoms: _111  and  _112
REMARK   48  A    between atoms: _111  and  _114
REMARK   49  A    between atoms: _114  and  _115
REMARK   50  A    between atoms: _115  and  _116
REMARK   51  A    between atoms: _119  and  _121
REMARK   52  A    between atoms: _121  and  _122
REMARK   53  A    between atoms: _121  and  _124
REMARK   54  A    between atoms: _124  and  _125
REMARK   55  A    between atoms: _125  and  _126
REMARK   56  A    between atoms: _126  and  _127
REMARK   57  A    between atoms: _127  and  _128
REMARK   58  A    between atoms: _132  and  _134
REMARK   59  A    between atoms: _134  and  _135
REMARK   60  A    between atoms: _134  and  _137
REMARK   61  A    between atoms: _137  and  _138
REMARK   62  A    between atoms: _138  and  _139
REMARK   63  A    between atoms: _141  and  _143
REMARK   64  A    between atoms: _143  and  _144
REMARK   65  A    between atoms: _143  and  _146
REMARK   66  A    between atoms: _146  and  _147
REMARK   67  A    between atoms: _150  and  _152
REMARK   68  A    between atoms: _152  and  _153
REMARK   69  A    between atoms: _155  and  _157
REMARK   70  A    between atoms: _157  and  _158
REMARK   71  A    between atoms: _160  and  _162
REMARK   72  A    between atoms: _162  and  _163
REMARK   73  A    between atoms: _162  and  _165
REMARK   74  A    between atoms: _165  and  _166
REMARK   75  A    between atoms: _169  and  _171
REMARK   76  A    between atoms: _171  and  _172
REMARK   77  A    between atoms: _174  and  _176
REMARK   78  A    between atoms: _176  and  _177
REMARK   79  A    between atoms: _179  and  _181
REMARK   80  A    between atoms: _181  and  _182
REMARK   81  A    between atoms: _181  and  _184
REMARK   82  A    between atoms: _184  and  _185
REMARK   83  A    between atoms: _191  and  _193
REMARK   84  A    between atoms: _193  and  _194
REMARK   85  A    between atoms: _193  and  _196
REMARK   86  A    between atoms: _196  and  _197
REMARK   87  A    between atoms: _200  and  _202
REMARK   88  A    between atoms: _202  and  _203
REMARK   89  A    between atoms: _202  and  _205
REMARK   90  A    between atoms: _208  and  _210
REMARK   91  A    between atoms: _210  and  _211
REMARK   92  A    between atoms: _210  and  _213
REMARK   93  A    between atoms: _213  and  _214
REMARK   94  A    between atoms: _217  and  _219
REMARK   95  A    between atoms: _219  and  _220
REMARK   96  A    between atoms: _219  and  _222
REMARK   97  A    between atoms: _222  and  _223
REMARK   98  A    between atoms: _227  and  _228
REMARK   99  A    between atoms: _233  and  _235
REMARK  100  A    between atoms: _235  and  _236
REMARK  101  A    between atoms: _235  and  _238
REMARK  102  A    between atoms: _238  and  _239
REMARK  103  A    between atoms: _242  and  _244
REMARK  104  A    between atoms: _244  and  _245
REMARK  105  A    between atoms: _244  and  _247
REMARK  106  A    between atoms: _247  and  _248
REMARK  107  A    between atoms: _253  and  _255
REMARK  108  A    between atoms: _255  and  _256
REMARK  109  A    between atoms: _255  and  _258
REMARK  110  A    between atoms: _261  and  _263
REMARK  111  A    between atoms: _263  and  _264
REMARK  112  A    between atoms: _263  and  _266
REMARK  113  A    between atoms: _266  and  _267
REMARK  114  A    between atoms: _270  and  _272
REMARK  115  A    between atoms: _272  and  _273
REMARK  116  A    between atoms: _275  and  _277
REMARK  117  A    between atoms: _277  and  _278
REMARK  118  A    between atoms: _277  and  _280
REMARK  119  A    between atoms: _280  and  _281
REMARK  120  A    between atoms: _281  and  _282
REMARK  121  A    between atoms: _282  and  _283
REMARK  122  A    between atoms: _292  and  _294
REMARK  123  A    between atoms: _294  and  _295
REMARK  124  A    between atoms: _294  and  _297
REMARK  125  A    between atoms: _297  and  _298
REMARK  126  A    between atoms: _303  and  _305
REMARK  127  A    between atoms: _305  and  _306
REMARK  128  A    between atoms: _305  and  _308
REMARK  129  A    between atoms: _308  and  _309
REMARK  130  A    between atoms: _309  and  _310
REMARK  131  A    between atoms: _310  and  _311
REMARK  132  A    between atoms: _320  and  _322
REMARK  133  A    between atoms: _322  and  _323
REMARK  134  A    between atoms: _322  and  _325
REMARK  135  A    between atoms: _325  and  _326
REMARK  136  A    between atoms: _329  and  _331
REMARK  137  A    between atoms: _331  and  _332
REMARK  138  A    between atoms: _331  and  _334
REMARK  139  A    between atoms: _334  and  _335
REMARK  140  A    between atoms: _338  and  _340
REMARK  141  A    between atoms: _340  and  _341
REMARK  142  A    between atoms: _340  and  _343
REMARK  143  A    between atoms: _343  and  _344
REMARK  144  A    between atoms: _347  and  _349
REMARK  145  A    between atoms: _349  and  _350
REMARK  146  A    between atoms: _349  and  _352
REMARK  147  A    between atoms: _352  and  _353
REMARK  148  A    between atoms: _356  and  _358
REMARK  149  A    between atoms: _358  and  _359
REMARK  150  A    between atoms: _358  and  _361
REMARK  151  A    between atoms: _361  and  _362
REMARK  152  A    between atoms: _365  and  _367
REMARK  153  A    between atoms: _367  and  _368
REMARK  154  A    between atoms: _370  and  _372
REMARK  155  A    between atoms: _372  and  _373
REMARK  156  A    between atoms: _376  and  _378
REMARK  157  A    between atoms: _378  and  _379
REMARK  158  A    between atoms: _378  and  _381
REMARK  159  A    between atoms: _381  and  _382
REMARK  160  A    between atoms: _385  and  _387
REMARK  161  A    between atoms: _387  and  _388
REMARK  162  A    between atoms: _387  and  _390
REMARK  163  A    between atoms: _390  and  _391
REMARK  164  A    between atoms: _394  and  _396
REMARK  165  A    between atoms: _396  and  _397
REMARK  166  A    between atoms: _396  and  _399
REMARK  167  A    between atoms: _399  and  _400
REMARK  168  A    between atoms: _403  and  _405
REMARK  169  A    between atoms: _405  and  _406
REMARK  170  A    between atoms: _405  and  _408
REMARK  171  A    between atoms: _411  and  _413
REMARK  172  A    between atoms: _413  and  _414
REMARK  173  A    between atoms: _413  and  _416
REMARK  174  A    between atoms: _416  and  _417
REMARK  175  A    between atoms: _417  and  _418
REMARK  176  A    between atoms: _418  and  _419
REMARK  177  A    between atoms: _419  and  _420
REMARK  178  A    between atoms: _424  and  _426
REMARK  179  A    between atoms: _426  and  _427
REMARK  180  A    between atoms: _426  and  _429
REMARK  181  A    between atoms: _429  and  _430
REMARK  182  A    between atoms: _430  and  _431
REMARK  183  A    between atoms: _433  and  _435
REMARK  184  A    between atoms: _435  and  _436
REMARK  185  A    between atoms: _435  and  _438
REMARK  186  A    between atoms: _438  and  _439
REMARK  187  A    between atoms: _442  and  _444
REMARK  188  A    between atoms: _444  and  _445
REMARK  189  A    between atoms: _447  and  _449
REMARK  190  A    between atoms: _449  and  _450
REMARK  191  A    between atoms: _452  and  _454
REMARK  192  A    between atoms: _454  and  _455
REMARK  193  A    between atoms: _454  and  _457
REMARK  194  A    between atoms: _457  and  _458
REMARK  195  A    between atoms: _461  and  _463
REMARK  196  A    between atoms: _463  and  _464
REMARK  197  A    between atoms: _466  and  _468
REMARK  198  A    between atoms: _468  and  _469
REMARK  199  A    between atoms: _471  and  _473
REMARK  200  A    between atoms: _473  and  _474
REMARK  201  A    between atoms: _473  and  _476
REMARK  202  A    between atoms: _476  and  _477
REMARK  203  A    between atoms: _483  and  _485
REMARK  204  A    between atoms: _485  and  _486
REMARK  205  A    between atoms: _485  and  _488
REMARK  206  A    between atoms: _488  and  _489
REMARK  207  A    between atoms: _492  and  _494
REMARK  208  A    between atoms: _494  and  _495
REMARK  209  A    between atoms: _494  and  _497
REMARK  210  A    between atoms: _500  and  _502
REMARK  211  A    between atoms: _502  and  _503
REMARK  212  A    between atoms: _502  and  _505
REMARK  213  A    between atoms: _505  and  _506
REMARK  214  A    between atoms: _509  and  _511
REMARK  215  A    between atoms: _511  and  _512
REMARK  216  A    between atoms: _511  and  _514
REMARK  217  A    between atoms: _514  and  _515
REMARK  218  A    between atoms: _519  and  _520
REMARK  219  A    between atoms: _525  and  _527
REMARK  220  A    between atoms: _527  and  _528
REMARK  221  A    between atoms: _527  and  _530
REMARK  222  A    between atoms: _530  and  _531
REMARK  223  A    between atoms: _534  and  _536
REMARK  224  A    between atoms: _536  and  _537
REMARK  225  A    between atoms: _536  and  _539
REMARK  226  A    between atoms: _539  and  _540
REMARK  227  A    between atoms: _545  and  _547
REMARK  228  A    between atoms: _547  and  _548
REMARK  229  A    between atoms: _547  and  _550
REMARK  230  A    between atoms: _553  and  _555
REMARK  231  A    between atoms: _555  and  _556
REMARK  232  A    between atoms: _555  and  _558
REMARK  233  A    between atoms: _558  and  _559
REMARK  234  A    between atoms: _562  and  _564
REMARK  235  A    between atoms: _564  and  _565
REMARK  236  A    between atoms: _567  and  _569
REMARK  237  A    between atoms: _569  and  _570
REMARK  238  A    between atoms: _569  and  _572
REMARK  239  A    between atoms: _572  and  _573
REMARK  240  A    between atoms: _573  and  _574
REMARK  241  A    between atoms: _574  and  _575
REMARK                            x       y       z     vdW  Elec       q    Type
REMARK                         _______ _______ _______ _____ _____    ______ ____
ROOT
ATOM      1  O   HOH     1      19.534  12.382   5.076  0.00  0.00    +0.000 OA
ENDROOT
TORSDOF 0
REMARK  Name = ../refined-set-2016/4a4q/4a4q_pocket.pdb
REMARK  241 active torsions:
REMARK  status: ('A' for Active; 'I' for Inactive)
REMARK    1  A    between atoms: _1  and  _3
REMARK    2  A    between atoms: _3  and  _4
REMARK    3  A    between atoms: _3  and  _6
REMARK    4  A    between atoms: _6  and  _7
REMARK    5  A    between atoms: _7  and  _8
REMARK    6  A    between atoms: _8  and  _9
REMARK    7  A    between atoms: _18  and  _20
REMARK    8  A    between atoms: _20  and  _21
REMARK    9  A    between atoms: _20  and  _23
REMARK   10  A    between atoms: _23  and  _24
REMARK   11  A    between atoms: _27  and  _29
REMARK   12  A    between atoms: _29  and  _30
REMARK   13  A    between atoms: _29  and  _32
REMARK   14  A    between atoms: _32  and  _33
REMARK   15  A    between atoms: _36  and  _38
REMARK   16  A    between atoms: _38  and  _39
REMARK   17  A    between atoms: _38  and  _41
REMARK   18  A    between atoms: _41  and  _42
REMARK   19  A    between atoms: _45  and  _47
REMARK   20  A    between atoms: _47  and  _48
REMARK   21  A    between atoms: _47  and  _50
REMARK   22  A    between atoms: _50  and  _51
REMARK   23  A    between atoms: _54  and  _56
REMARK   24  A    between atoms: _56  and  _57
REMARK   25  A    between atoms: _59  and  _61
REMARK   26  A    between atoms: _61  and  _62
REMARK   27  A    between atoms: _65  and  _67
REMARK   28  A    between atoms: _67  and  _68
REMARK   29  A    between atoms: _67  and  _70
REMARK   30  A    between atoms: _70  and  _71
REMARK   31  A    between atoms: _74  and  _76
REMARK   32  A    between atoms: _76  and  _77
REMARK   33  A    between atoms: _76  and  _79
REMARK   34  A    between atoms: _79  and  _80
REMARK   35  A    between atoms: _83  and  _85
REMARK   36  A    between atoms: _85  and  _86
REMARK   37  A    between atoms: _85  and  _88
REMARK   38  A    between atoms: _88  and  _89
REMARK   39  A    between atoms: _92  and  _94
REMARK   40  A    between atoms: _94  and  _95
REMARK   41  A    between atoms: _94  and  _97
REMARK   42  A    between atoms: _100  and  _102
REMARK   43  A    between atoms: _102  and  _103
REMARK   44  A    between atoms: _102  and  _105
REMARK   45  A    between atoms: _105  and  _106
REMARK   46  A    between atoms: _109  and  _111
REMARK   47  A    between atoms: _111  and  _112
REMARK   48  A    between atoms: _111  and  _114
REMARK   49  A    between atoms: _114  and  _115
REMARK   50  A    between atoms: _115  and  _116
REMARK   51  A    between atoms: _119  and  _121
REMARK   52  A    between atoms: _121  and  _122
REMARK   53  A    between atoms: _121  and  _124
REMARK   54  A    between atoms: _124  and  _125
REMARK   55  A    between atoms: _125  and  _126
REMARK   56  A    between atoms: _126  and  _127
REMARK   57  A    between atoms: _127  and  _128
REMARK   58  A    between atoms: _132  and  _134
REMARK   59  A    between atoms: _134  and  _135
REMARK   60  A    between atoms: _134  and  _137
REMARK   61  A    between atoms: _137  and  _138
REMARK   62  A    between atoms: _138  and  _139
REMARK   63  A    between atoms: _141  and  _143
REMARK   64  A    between atoms: _143  and  _144
REMARK   65  A    between atoms: _143  and  _146
REMARK   66  A    between atoms: _146  and  _147
REMARK   67  A    between atoms: _150  and  _152
REMARK   68  A    between atoms: _152  and  _153
REMARK   69  A    between atoms: _155  and  _157
REMARK   70  A    between atoms: _157  and  _158
REMARK   71  A    between atoms: _160  and  _162
REMARK   72  A    between atoms: _162  and  _163
REMARK   73  A    between atoms: _162  and  _165
REMARK   74  A    between atoms: _165  and  _166
REMARK   75  A    between atoms: _169  and  _171
REMARK   76  A    between atoms: _171  and  _172
REMARK   77  A    between atoms: _174  and  _176
REMARK   78  A    between atoms: _176  and  _177
REMARK   79  A    between atoms: _179  and  _181
REMARK   80  A    between atoms: _181  and  _182
REMARK   81  A    between atoms: _181  and  _184
REMARK   82  A    between atoms: _184  and  _185
REMARK   83  A    between atoms: _191  and  _193
REMARK   84  A    between atoms: _193  and  _194
REMARK   85  A    between atoms: _193  and  _196
REMARK   86  A    between atoms: _196  and  _197
REMARK   87  A    between atoms: _200  and  _202
REMARK   88  A    between atoms: _202  and  _203
REMARK   89  A    between atoms: _202  and  _205
REMARK   90  A    between atoms: _208  and  _210
REMARK   91  A    between atoms: _210  and  _211
REMARK   92  A    between atoms: _210  and  _213
REMARK   93  A    between atoms: _213  and  _214
REMARK   94  A    between atoms: _217  and  _219
REMARK   95  A    between atoms: _219  and  _220
REMARK   96  A    between atoms: _219  and  _222
REMARK   97  A    between atoms: _222  and  _223
REMARK   98  A    between atoms: _227  and  _228
REMARK   99  A    between atoms: _233  and  _235
REMARK  100  A    between atoms: _235  and  _236
REMARK  101  A    between atoms: _235  and  _238
REMARK  102  A    between atoms: _238  and  _239
REMARK  103  A    between atoms: _242  and  _244
REMARK  104  A    between atoms: _244  and  _245
REMARK  105  A    between atoms: _244  and  _247
REMARK  106  A    between atoms: _247  and  _248
REMARK  107  A    between atoms: _253  and  _255
REMARK  108  A    between atoms: _255  and  _256
REMARK  109  A    between atoms: _255  and  _258
REMARK  110  A    between atoms: _261  and  _263
REMARK  111  A    between atoms: _263  and  _264
REMARK  112  A    between atoms: _263  and  _266
REMARK  113  A    between atoms: _266  and  _267
REMARK  114  A    between atoms: _270  and  _272
REMARK  115  A    between atoms: _272  and  _273
REMARK  116  A    between atoms: _275  and  _277
REMARK  117  A    between atoms: _277  and  _278
REMARK  118  A    between atoms: _277  and  _280
REMARK  119  A    between atoms: _280  and  _281
REMARK  120  A    between atoms: _281  and  _282
REMARK  121  A    between atoms: _282  and  _283
REMARK  122  A    between atoms: _292  and  _294
REMARK  123  A    between atoms: _294  and  _295
REMARK  124  A    between atoms: _294  and  _297
REMARK  125  A    between atoms: _297  and  _298
REMARK  126  A    between atoms: _303  and  _305
REMARK  127  A    between atoms: _305  and  _306
REMARK  128  A    between atoms: _305  and  _308
REMARK  129  A    between atoms: _308  and  _309
REMARK  130  A    between atoms: _309  and  _310
REMARK  131  A    between atoms: _310  and  _311
REMARK  132  A    between atoms: _320  and  _322
REMARK  133  A    between atoms: _322  and  _323
REMARK  134  A    between atoms: _322  and  _325
REMARK  135  A    between atoms: _325  and  _326
REMARK  136  A    between atoms: _329  and  _331
REMARK  137  A    between atoms: _331  and  _332
REMARK  138  A    between atoms: _331  and  _334
REMARK  139  A    between atoms: _334  and  _335
REMARK  140  A    between atoms: _338  and  _340
REMARK  141  A    between atoms: _340  and  _341
REMARK  142  A    between atoms: _340  and  _343
REMARK  143  A    between atoms: _343  and  _344
REMARK  144  A    between atoms: _347  and  _349
REMARK  145  A    between atoms: _349  and  _350
REMARK  146  A    between atoms: _349  and  _352
REMARK  147  A    between atoms: _352  and  _353
REMARK  148  A    between atoms: _356  and  _358
REMARK  149  A    between atoms: _358  and  _359
REMARK  150  A    between atoms: _358  and  _361
REMARK  151  A    between atoms: _361  and  _362
REMARK  152  A    between atoms: _365  and  _367
REMARK  153  A    between atoms: _367  and  _368
REMARK  154  A    between atoms: _370  and  _372
REMARK  155  A    between atoms: _372  and  _373
REMARK  156  A    between atoms: _376  and  _378
REMARK  157  A    between atoms: _378  and  _379
REMARK  158  A    between atoms: _378  and  _381
REMARK  159  A    between atoms: _381  and  _382
REMARK  160  A    between atoms: _385  and  _387
REMARK  161  A    between atoms: _387  and  _388
REMARK  162  A    between atoms: _387  and  _390
REMARK  163  A    between atoms: _390  and  _391
REMARK  164  A    between atoms: _394  and  _396
REMARK  165  A    between atoms: _396  and  _397
REMARK  166  A    between atoms: _396  and  _399
REMARK  167  A    between atoms: _399  and  _400
REMARK  168  A    between atoms: _403  and  _405
REMARK  169  A    between atoms: _405  and  _406
REMARK  170  A    between atoms: _405  and  _408
REMARK  171  A    between atoms: _411  and  _413
REMARK  172  A    between atoms: _413  and  _414
REMARK  173  A    between atoms: _413  and  _416
REMARK  174  A    between atoms: _416  and  _417
REMARK  175  A    between atoms: _417  and  _418
REMARK  176  A    between atoms: _418  and  _419
REMARK  177  A    between atoms: _419  and  _420
REMARK  178  A    between atoms: _424  and  _426
REMARK  179  A    between atoms: _426  and  _427
REMARK  180  A    between atoms: _426  and  _429
REMARK  181  A    between atoms: _429  and  _430
REMARK  182  A    between atoms: _430  and  _431
REMARK  183  A    between atoms: _433  and  _435
REMARK  184  A    between atoms: _435  and  _436
REMARK  185  A    between atoms: _435  and  _438
REMARK  186  A    between atoms: _438  and  _439
REMARK  187  A    between atoms: _442  and  _444
REMARK  188  A    between atoms: _444  and  _445
REMARK  189  A    between atoms: _447  and  _449
REMARK  190  A    between atoms: _449  and  _450
REMARK  191  A    between atoms: _452  and  _454
REMARK  192  A    between atoms: _454  and  _455
REMARK  193  A    between atoms: _454  and  _457
REMARK  194  A    between atoms: _457  and  _458
REMARK  195  A    between atoms: _461  and  _463
REMARK  196  A    between atoms: _463  and  _464
REMARK  197  A    between atoms: _466  and  _468
REMARK  198  A    between atoms: _468  and  _469
REMARK  199  A    between atoms: _471  and  _473
REMARK  200  A    between atoms: _473  and  _474
REMARK  201  A    between atoms: _473  and  _476
REMARK  202  A    between atoms: _476  and  _477
REMARK  203  A    between atoms: _483  and  _485
REMARK  204  A    between atoms: _485  and  _486
REMARK  205  A    between atoms: _485  and  _488
REMARK  206  A    between atoms: _488  and  _489
REMARK  207  A    between atoms: _492  and  _494
REMARK  208  A    between atoms: _494  and  _495
REMARK  209  A    between atoms: _494  and  _497
REMARK  210  A    between atoms: _500  and  _502
REMARK  211  A    between atoms: _502  and  _503
REMARK  212  A    between atoms: _502  and  _505
REMARK  213  A    between atoms: _505  and  _506
REMARK  214  A    between atoms: _509  and  _511
REMARK  215  A    between atoms: _511  and  _512
REMARK  216  A    between atoms: _511  and  _514
REMARK  217  A    between atoms: _514  and  _515
REMARK  218  A    between atoms: _519  and  _520
REMARK  219  A    between atoms: _525  and  _527
REMARK  220  A    between atoms: _527  and  _528
REMARK  221  A    between atoms: _527  and  _530
REMARK  222  A    between atoms: _530  and  _531
REMARK  223  A    between atoms: _534  and  _536
REMARK  224  A    between atoms: _536  and  _537
REMARK  225  A    between atoms: _536  and  _539
REMARK  226  A    between atoms: _539  and  _540
REMARK  227  A    between atoms: _545  and  _547
REMARK  228  A    between atoms: _547  and  _548
REMARK  229  A    between atoms: _547  and  _550
REMARK  230  A    between atoms: _553  and  _555
REMARK  231  A    between atoms: _555  and  _556
REMARK  232  A    between atoms: _555  and  _558
REMARK  233  A    between atoms: _558  and  _559
REMARK  234  A    between atoms: _562  and  _564
REMARK  235  A    between atoms: _564  and  _565
REMARK  236  A    between atoms: _567  and  _569
REMARK  237  A    between atoms: _569  and  _570
REMARK  238  A    between atoms: _569  and  _572
REMARK  239  A    between atoms: _572  and  _573
REMARK  240  A    between atoms: _573  and  _574
REMARK  241  A    between atoms: _574  and  _575
REMARK                            x       y       z     vdW  Elec       q    Type
REMARK                         _______ _______ _______ _____ _____    ______ ____
ROOT
ATOM      1  O   HOH     1      13.180  15.121  11.504  0.00  0.00    +0.000 OA
ENDROOT
TORSDOF 0
REMARK  Name = ../refined-set-2016/4a4q/4a4q_pocket.pdb
REMARK  241 active torsions:
REMARK  status: ('A' for Active; 'I' for Inactive)
REMARK    1  A    between atoms: _1  and  _3
REMARK    2  A    between atoms: _3  and  _4
REMARK    3  A    between atoms: _3  and  _6
REMARK    4  A    between atoms: _6  and  _7
REMARK    5  A    between atoms: _7  and  _8
REMARK    6  A    between atoms: _8  and  _9
REMARK    7  A    between atoms: _18  and  _20
REMARK    8  A    between atoms: _20  and  _21
REMARK    9  A    between atoms: _20  and  _23
REMARK   10  A    between atoms: _23  and  _24
REMARK   11  A    between atoms: _27  and  _29
REMARK   12  A    between atoms: _29  and  _30
REMARK   13  A    between atoms: _29  and  _32
REMARK   14  A    between atoms: _32  and  _33
REMARK   15  A    between atoms: _36  and  _38
REMARK   16  A    between atoms: _38  and  _39
REMARK   17  A    between atoms: _38  and  _41
REMARK   18  A    between atoms: _41  and  _42
REMARK   19  A    between atoms: _45  and  _47
REMARK   20  A    between atoms: _47  and  _48
REMARK   21  A    between atoms: _47  and  _50
REMARK   22  A    between atoms: _50  and  _51
REMARK   23  A    between atoms: _54  and  _56
REMARK   24  A    between atoms: _56  and  _57
REMARK   25  A    between atoms: _59  and  _61
REMARK   26  A    between atoms: _61  and  _62
REMARK   27  A    between atoms: _65  and  _67
REMARK   28  A    between atoms: _67  and  _68
REMARK   29  A    between atoms: _67  and  _70
REMARK   30  A    between atoms: _70  and  _71
REMARK   31  A    between atoms: _74  and  _76
REMARK   32  A    between atoms: _76  and  _77
REMARK   33  A    between atoms: _76  and  _79
REMARK   34  A    between atoms: _79  and  _80
REMARK   35  A    between atoms: _83  and  _85
REMARK   36  A    between atoms: _85  and  _86
REMARK   37  A    between atoms: _85  and  _88
REMARK   38  A    between atoms: _88  and  _89
REMARK   39  A    between atoms: _92  and  _94
REMARK   40  A    between atoms: _94  and  _95
REMARK   41  A    between atoms: _94  and  _97
REMARK   42  A    between atoms: _100  and  _102
REMARK   43  A    between atoms: _102  and  _103
REMARK   44  A    between atoms: _102  and  _105
REMARK   45  A    between atoms: _105  and  _106
REMARK   46  A    between atoms: _109  and  _111
REMARK   47  A    between atoms: _111  and  _112
REMARK   48  A    between atoms: _111  and  _114
REMARK   49  A    between atoms: _114  and  _115
REMARK   50  A    between atoms: _115  and  _116
REMARK   51  A    between atoms: _119  and  _121
REMARK   52  A    between atoms: _121  and  _122
REMARK   53  A    between atoms: _121  and  _124
REMARK   54  A    between atoms: _124  and  _125
REMARK   55  A    between atoms: _125  and  _126
REMARK   56  A    between atoms: _126  and  _127
REMARK   57  A    between atoms: _127  and  _128
REMARK   58  A    between atoms: _132  and  _134
REMARK   59  A    between atoms: _134  and  _135
REMARK   60  A    between atoms: _134  and  _137
REMARK   61  A    between atoms: _137  and  _138
REMARK   62  A    between atoms: _138  and  _139
REMARK   63  A    between atoms: _141  and  _143
REMARK   64  A    between atoms: _143  and  _144
REMARK   65  A    between atoms: _143  and  _146
REMARK   66  A    between atoms: _146  and  _147
REMARK   67  A    between atoms: _150  and  _152
REMARK   68  A    between atoms: _152  and  _153
REMARK   69  A    between atoms: _155  and  _157
REMARK   70  A    between atoms: _157  and  _158
REMARK   71  A    between atoms: _160  and  _162
REMARK   72  A    between atoms: _162  and  _163
REMARK   73  A    between atoms: _162  and  _165
REMARK   74  A    between atoms: _165  and  _166
REMARK   75  A    between atoms: _169  and  _171
REMARK   76  A    between atoms: _171  and  _172
REMARK   77  A    between atoms: _174  and  _176
REMARK   78  A    between atoms: _176  and  _177
REMARK   79  A    between atoms: _179  and  _181
REMARK   80  A    between atoms: _181  and  _182
REMARK   81  A    between atoms: _181  and  _184
REMARK   82  A    between atoms: _184  and  _185
REMARK   83  A    between atoms: _191  and  _193
REMARK   84  A    between atoms: _193  and  _194
REMARK   85  A    between atoms: _193  and  _196
REMARK   86  A    between atoms: _196  and  _197
REMARK   87  A    between atoms: _200  and  _202
REMARK   88  A    between atoms: _202  and  _203
REMARK   89  A    between atoms: _202  and  _205
REMARK   90  A    between atoms: _208  and  _210
REMARK   91  A    between atoms: _210  and  _211
REMARK   92  A    between atoms: _210  and  _213
REMARK   93  A    between atoms: _213  and  _214
REMARK   94  A    between atoms: _217  and  _219
REMARK   95  A    between atoms: _219  and  _220
REMARK   96  A    between atoms: _219  and  _222
REMARK   97  A    between atoms: _222  and  _223
REMARK   98  A    between atoms: _227  and  _228
REMARK   99  A    between atoms: _233  and  _235
REMARK  100  A    between atoms: _235  and  _236
REMARK  101  A    between atoms: _235  and  _238
REMARK  102  A    between atoms: _238  and  _239
REMARK  103  A    between atoms: _242  and  _244
REMARK  104  A    between atoms: _244  and  _245
REMARK  105  A    between atoms: _244  and  _247
REMARK  106  A    between atoms: _247  and  _248
REMARK  107  A    between atoms: _253  and  _255
REMARK  108  A    between atoms: _255  and  _256
REMARK  109  A    between atoms: _255  and  _258
REMARK  110  A    between atoms: _261  and  _263
REMARK  111  A    between atoms: _263  and  _264
REMARK  112  A    between atoms: _263  and  _266
REMARK  113  A    between atoms: _266  and  _267
REMARK  114  A    between atoms: _270  and  _272
REMARK  115  A    between atoms: _272  and  _273
REMARK  116  A    between atoms: _275  and  _277
REMARK  117  A    between atoms: _277  and  _278
REMARK  118  A    between atoms: _277  and  _280
REMARK  119  A    between atoms: _280  and  _281
REMARK  120  A    between atoms: _281  and  _282
REMARK  121  A    between atoms: _282  and  _283
REMARK  122  A    between atoms: _292  and  _294
REMARK  123  A    between atoms: _294  and  _295
REMARK  124  A    between atoms: _294  and  _297
REMARK  125  A    between atoms: _297  and  _298
REMARK  126  A    between atoms: _303  and  _305
REMARK  127  A    between atoms: _305  and  _306
REMARK  128  A    between atoms: _305  and  _308
REMARK  129  A    between atoms: _308  and  _309
REMARK  130  A    between atoms: _309  and  _310
REMARK  131  A    between atoms: _310  and  _311
REMARK  132  A    between atoms: _320  and  _322
REMARK  133  A    between atoms: _322  and  _323
REMARK  134  A    between atoms: _322  and  _325
REMARK  135  A    between atoms: _325  and  _326
REMARK  136  A    between atoms: _329  and  _331
REMARK  137  A    between atoms: _331  and  _332
REMARK  138  A    between atoms: _331  and  _334
REMARK  139  A    between atoms: _334  and  _335
REMARK  140  A    between atoms: _338  and  _340
REMARK  141  A    between atoms: _340  and  _341
REMARK  142  A    between atoms: _340  and  _343
REMARK  143  A    between atoms: _343  and  _344
REMARK  144  A    between atoms: _347  and  _349
REMARK  145  A    between atoms: _349  and  _350
REMARK  146  A    between atoms: _349  and  _352
REMARK  147  A    between atoms: _352  and  _353
REMARK  148  A    between atoms: _356  and  _358
REMARK  149  A    between atoms: _358  and  _359
REMARK  150  A    between atoms: _358  and  _361
REMARK  151  A    between atoms: _361  and  _362
REMARK  152  A    between atoms: _365  and  _367
REMARK  153  A    between atoms: _367  and  _368
REMARK  154  A    between atoms: _370  and  _372
REMARK  155  A    between atoms: _372  and  _373
REMARK  156  A    between atoms: _376  and  _378
REMARK  157  A    between atoms: _378  and  _379
REMARK  158  A    between atoms: _378  and  _381
REMARK  159  A    between atoms: _381  and  _382
REMARK  160  A    between atoms: _385  and  _387
REMARK  161  A    between atoms: _387  and  _388
REMARK  162  A    between atoms: _387  and  _390
REMARK  163  A    between atoms: _390  and  _391
REMARK  164  A    between atoms: _394  and  _396
REMARK  165  A    between atoms: _396  and  _397
REMARK  166  A    between atoms: _396  and  _399
REMARK  167  A    between atoms: _399  and  _400
REMARK  168  A    between atoms: _403  and  _405
REMARK  169  A    between atoms: _405  and  _406
REMARK  170  A    between atoms: _405  and  _408
REMARK  171  A    between atoms: _411  and  _413
REMARK  172  A    between atoms: _413  and  _414
REMARK  173  A    between atoms: _413  and  _416
REMARK  174  A    between atoms: _416  and  _417
REMARK  175  A    between atoms: _417  and  _418
REMARK  176  A    between atoms: _418  and  _419
REMARK  177  A    between atoms: _419  and  _420
REMARK  178  A    between atoms: _424  and  _426
REMARK  179  A    between atoms: _426  and  _427
REMARK  180  A    between atoms: _426  and  _429
REMARK  181  A    between atoms: _429  and  _430
REMARK  182  A    between atoms: _430  and  _431
REMARK  183  A    between atoms: _433  and  _435
REMARK  184  A    between atoms: _435  and  _436
REMARK  185  A    between atoms: _435  and  _438
REMARK  186  A    between atoms: _438  and  _439
REMARK  187  A    between atoms: _442  and  _444
REMARK  188  A    between atoms: _444  and  _445
REMARK  189  A    between atoms: _447  and  _449
REMARK  190  A    between atoms: _449  and  _450
REMARK  191  A    between atoms: _452  and  _454
REMARK  192  A    between atoms: _454  and  _455
REMARK  193  A    between atoms: _454  and  _457
REMARK  194  A    between atoms: _457  and  _458
REMARK  195  A    between atoms: _461  and  _463
REMARK  196  A    between atoms: _463  and  _464
REMARK  197  A    between atoms: _466  and  _468
REMARK  198  A    between atoms: _468  and  _469
REMARK  199  A    between atoms: _471  and  _473
REMARK  200  A    between atoms: _473  and  _474
REMARK  201  A    between atoms: _473  and  _476
REMARK  202  A    between atoms: _476  and  _477
REMARK  203  A    between atoms: _483  and  _485
REMARK  204  A    between atoms: _485  and  _486
REMARK  205  A    between atoms: _485  and  _488
REMARK  206  A    between atoms: _488  and  _489
REMARK  207  A    between atoms: _492  and  _494
REMARK  208  A    between atoms: _494  and  _495
REMARK  209  A    between atoms: _494  and  _497
REMARK  210  A    between atoms: _500  and  _502
REMARK  211  A    between atoms: _502  and  _503
REMARK  212  A    between atoms: _502  and  _505
REMARK  213  A    between atoms: _505  and  _506
REMARK  214  A    between atoms: _509  and  _511
REMARK  215  A    between atoms: _511  and  _512
REMARK  216  A    between atoms: _511  and  _514
REMARK  217  A    between atoms: _514  and  _515
REMARK  218  A    between atoms: _519  and  _520
REMARK  219  A    between atoms: _525  and  _527
REMARK  220  A    between atoms: _527  and  _528
REMARK  221  A    between atoms: _527  and  _530
REMARK  222  A    between atoms: _530  and  _531
REMARK  223  A    between atoms: _534  and  _536
REMARK  224  A    between atoms: _536  and  _537
REMARK  225  A    between atoms: _536  and  _539
REMARK  226  A    between atoms: _539  and  _540
REMARK  227  A    between atoms: _545  and  _547
REMARK  228  A    between atoms: _547  and  _548
REMARK  229  A    between atoms: _547  and  _550
REMARK  230  A    between atoms: _553  and  _555
REMARK  231  A    between atoms: _555  and  _556
REMARK  232  A    between atoms: _555  and  _558
REMARK  233  A    between atoms: _558  and  _559
REMARK  234  A    between atoms: _562  and  _564
REMARK  235  A    between atoms: _564  and  _565
REMARK  236  A    between atoms: _567  and  _569
REMARK  237  A    between atoms: _569  and  _570
REMARK  238  A    between atoms: _569  and  _572
REMARK  239  A    between atoms: _572  and  _573
REMARK  240  A    between atoms: _573  and  _574
REMARK  241  A    between atoms: _574  and  _575
REMARK                            x       y       z     vdW  Elec       q    Type
REMARK                         _______ _______ _______ _____ _____    ______ ____
ROOT
ATOM      1  O   HOH     1       9.742  16.458  13.923  0.00  0.00    +0.000 OA
ENDROOT
TORSDOF 0
REMARK  Name = ../refined-set-2016/4a4q/4a4q_pocket.pdb
REMARK  241 active torsions:
REMARK  status: ('A' for Active; 'I' for Inactive)
REMARK    1  A    between atoms: _1  and  _3
REMARK    2  A    between atoms: _3  and  _4
REMARK    3  A    between atoms: _3  and  _6
REMARK    4  A    between atoms: _6  and  _7
REMARK    5  A    between atoms: _7  and  _8
REMARK    6  A    between atoms: _8  and  _9
REMARK    7  A    between atoms: _18  and  _20
REMARK    8  A    between atoms: _20  and  _21
REMARK    9  A    between atoms: _20  and  _23
REMARK   10  A    between atoms: _23  and  _24
REMARK   11  A    between atoms: _27  and  _29
REMARK   12  A    between atoms: _29  and  _30
REMARK   13  A    between atoms: _29  and  _32
REMARK   14  A    between atoms: _32  and  _33
REMARK   15  A    between atoms: _36  and  _38
REMARK   16  A    between atoms: _38  and  _39
REMARK   17  A    between atoms: _38  and  _41
REMARK   18  A    between atoms: _41  and  _42
REMARK   19  A    between atoms: _45  and  _47
REMARK   20  A    between atoms: _47  and  _48
REMARK   21  A    between atoms: _47  and  _50
REMARK   22  A    between atoms: _50  and  _51
REMARK   23  A    between atoms: _54  and  _56
REMARK   24  A    between atoms: _56  and  _57
REMARK   25  A    between atoms: _59  and  _61
REMARK   26  A    between atoms: _61  and  _62
REMARK   27  A    between atoms: _65  and  _67
REMARK   28  A    between atoms: _67  and  _68
REMARK   29  A    between atoms: _67  and  _70
REMARK   30  A    between atoms: _70  and  _71
REMARK   31  A    between atoms: _74  and  _76
REMARK   32  A    between atoms: _76  and  _77
REMARK   33  A    between atoms: _76  and  _79
REMARK   34  A    between atoms: _79  and  _80
REMARK   35  A    between atoms: _83  and  _85
REMARK   36  A    between atoms: _85  and  _86
REMARK   37  A    between atoms: _85  and  _88
REMARK   38  A    between atoms: _88  and  _89
REMARK   39  A    between atoms: _92  and  _94
REMARK   40  A    between atoms: _94  and  _95
REMARK   41  A    between atoms: _94  and  _97
REMARK   42  A    between atoms: _100  and  _102
REMARK   43  A    between atoms: _102  and  _103
REMARK   44  A    between atoms: _102  and  _105
REMARK   45  A    between atoms: _105  and  _106
REMARK   46  A    between atoms: _109  and  _111
REMARK   47  A    between atoms: _111  and  _112
REMARK   48  A    between atoms: _111  and  _114
REMARK   49  A    between atoms: _114  and  _115
REMARK   50  A    between atoms: _115  and  _116
REMARK   51  A    between atoms: _119  and  _121
REMARK   52  A    between atoms: _121  and  _122
REMARK   53  A    between atoms: _121  and  _124
REMARK   54  A    between atoms: _124  and  _125
REMARK   55  A    between atoms: _125  and  _126
REMARK   56  A    between atoms: _126  and  _127
REMARK   57  A    between atoms: _127  and  _128
REMARK   58  A    between atoms: _132  and  _134
REMARK   59  A    between atoms: _134  and  _135
REMARK   60  A    between atoms: _134  and  _137
REMARK   61  A    between atoms: _137  and  _138
REMARK   62  A    between atoms: _138  and  _139
REMARK   63  A    between atoms: _141  and  _143
REMARK   64  A    between atoms: _143  and  _144
REMARK   65  A    between atoms: _143  and  _146
REMARK   66  A    between atoms: _146  and  _147
REMARK   67  A    between atoms: _150  and  _152
REMARK   68  A    between atoms: _152  and  _153
REMARK   69  A    between atoms: _155  and  _157
REMARK   70  A    between atoms: _157  and  _158
REMARK   71  A    between atoms: _160  and  _162
REMARK   72  A    between atoms: _162  and  _163
REMARK   73  A    between atoms: _162  and  _165
REMARK   74  A    between atoms: _165  and  _166
REMARK   75  A    between atoms: _169  and  _171
REMARK   76  A    between atoms: _171  and  _172
REMARK   77  A    between atoms: _174  and  _176
REMARK   78  A    between atoms: _176  and  _177
REMARK   79  A    between atoms: _179  and  _181
REMARK   80  A    between atoms: _181  and  _182
REMARK   81  A    between atoms: _181  and  _184
REMARK   82  A    between atoms: _184  and  _185
REMARK   83  A    between atoms: _191  and  _193
REMARK   84  A    between atoms: _193  and  _194
REMARK   85  A    between atoms: _193  and  _196
REMARK   86  A    between atoms: _196  and  _197
REMARK   87  A    between atoms: _200  and  _202
REMARK   88  A    between atoms: _202  and  _203
REMARK   89  A    between atoms: _202  and  _205
REMARK   90  A    between atoms: _208  and  _210
REMARK   91  A    between atoms: _210  and  _211
REMARK   92  A    between atoms: _210  and  _213
REMARK   93  A    between atoms: _213  and  _214
REMARK   94  A    between atoms: _217  and  _219
REMARK   95  A    between atoms: _219  and  _220
REMARK   96  A    between atoms: _219  and  _222
REMARK   97  A    between atoms: _222  and  _223
REMARK   98  A    between atoms: _227  and  _228
REMARK   99  A    between atoms: _233  and  _235
REMARK  100  A    between atoms: _235  and  _236
REMARK  101  A    between atoms: _235  and  _238
REMARK  102  A    between atoms: _238  and  _239
REMARK  103  A    between atoms: _242  and  _244
REMARK  104  A    between atoms: _244  and  _245
REMARK  105  A    between atoms: _244  and  _247
REMARK  106  A    between atoms: _247  and  _248
REMARK  107  A    between atoms: _253  and  _255
REMARK  108  A    between atoms: _255  and  _256
REMARK  109  A    between atoms: _255  and  _258
REMARK  110  A    between atoms: _261  and  _263
REMARK  111  A    between atoms: _263  and  _264
REMARK  112  A    between atoms: _263  and  _266
REMARK  113  A    between atoms: _266  and  _267
REMARK  114  A    between atoms: _270  and  _272
REMARK  115  A    between atoms: _272  and  _273
REMARK  116  A    between atoms: _275  and  _277
REMARK  117  A    between atoms: _277  and  _278
REMARK  118  A    between atoms: _277  and  _280
REMARK  119  A    between atoms: _280  and  _281
REMARK  120  A    between atoms: _281  and  _282
REMARK  121  A    between atoms: _282  and  _283
REMARK  122  A    between atoms: _292  and  _294
REMARK  123  A    between atoms: _294  and  _295
REMARK  124  A    between atoms: _294  and  _297
REMARK  125  A    between atoms: _297  and  _298
REMARK  126  A    between atoms: _303  and  _305
REMARK  127  A    between atoms: _305  and  _306
REMARK  128  A    between atoms: _305  and  _308
REMARK  129  A    between atoms: _308  and  _309
REMARK  130  A    between atoms: _309  and  _310
REMARK  131  A    between atoms: _310  and  _311
REMARK  132  A    between atoms: _320  and  _322
REMARK  133  A    between atoms: _322  and  _323
REMARK  134  A    between atoms: _322  and  _325
REMARK  135  A    between atoms: _325  and  _326
REMARK  136  A    between atoms: _329  and  _331
REMARK  137  A    between atoms: _331  and  _332
REMARK  138  A    between atoms: _331  and  _334
REMARK  139  A    between atoms: _334  and  _335
REMARK  140  A    between atoms: _338  and  _340
REMARK  141  A    between atoms: _340  and  _341
REMARK  142  A    between atoms: _340  and  _343
REMARK  143  A    between atoms: _343  and  _344
REMARK  144  A    between atoms: _347  and  _349
REMARK  145  A    between atoms: _349  and  _350
REMARK  146  A    between atoms: _349  and  _352
REMARK  147  A    between atoms: _352  and  _353
REMARK  148  A    between atoms: _356  and  _358
REMARK  149  A    between atoms: _358  and  _359
REMARK  150  A    between atoms: _358  and  _361
REMARK  151  A    between atoms: _361  and  _362
REMARK  152  A    between atoms: _365  and  _367
REMARK  153  A    between atoms: _367  and  _368
REMARK  154  A    between atoms: _370  and  _372
REMARK  155  A    between atoms: _372  and  _373
REMARK  156  A    between atoms: _376  and  _378
REMARK  157  A    between atoms: _378  and  _379
REMARK  158  A    between atoms: _378  and  _381
REMARK  159  A    between atoms: _381  and  _382
REMARK  160  A    between atoms: _385  and  _387
REMARK  161  A    between atoms: _387  and  _388
REMARK  162  A    between atoms: _387  and  _390
REMARK  163  A    between atoms: _390  and  _391
REMARK  164  A    between atoms: _394  and  _396
REMARK  165  A    between atoms: _396  and  _397
REMARK  166  A    between atoms: _396  and  _399
REMARK  167  A    between atoms: _399  and  _400
REMARK  168  A    between atoms: _403  and  _405
REMARK  169  A    between atoms: _405  and  _406
REMARK  170  A    between atoms: _405  and  _408
REMARK  171  A    between atoms: _411  and  _413
REMARK  172  A    between atoms: _413  and  _414
REMARK  173  A    between atoms: _413  and  _416
REMARK  174  A    between atoms: _416  and  _417
REMARK  175  A    between atoms: _417  and  _418
REMARK  176  A    between atoms: _418  and  _419
REMARK  177  A    between atoms: _419  and  _420
REMARK  178  A    between atoms: _424  and  _426
REMARK  179  A    between atoms: _426  and  _427
REMARK  180  A    between atoms: _426  and  _429
REMARK  181  A    between atoms: _429  and  _430
REMARK  182  A    between atoms: _430  and  _431
REMARK  183  A    between atoms: _433  and  _435
REMARK  184  A    between atoms: _435  and  _436
REMARK  185  A    between atoms: _435  and  _438
REMARK  186  A    between atoms: _438  and  _439
REMARK  187  A    between atoms: _442  and  _444
REMARK  188  A    between atoms: _444  and  _445
REMARK  189  A    between atoms: _447  and  _449
REMARK  190  A    between atoms: _449  and  _450
REMARK  191  A    between atoms: _452  and  _454
REMARK  192  A    between atoms: _454  and  _455
REMARK  193  A    between atoms: _454  and  _457
REMARK  194  A    between atoms: _457  and  _458
REMARK  195  A    between atoms: _461  and  _463
REMARK  196  A    between atoms: _463  and  _464
REMARK  197  A    between atoms: _466  and  _468
REMARK  198  A    between atoms: _468  and  _469
REMARK  199  A    between atoms: _471  and  _473
REMARK  200  A    between atoms: _473  and  _474
REMARK  201  A    between atoms: _473  and  _476
REMARK  202  A    between atoms: _476  and  _477
REMARK  203  A    between atoms: _483  and  _485
REMARK  204  A    between atoms: _485  and  _486
REMARK  205  A    between atoms: _485  and  _488
REMARK  206  A    between atoms: _488  and  _489
REMARK  207  A    between atoms: _492  and  _494
REMARK  208  A    between atoms: _494  and  _495
REMARK  209  A    between atoms: _494  and  _497
REMARK  210  A    between atoms: _500  and  _502
REMARK  211  A    between atoms: _502  and  _503
REMARK  212  A    between atoms: _502  and  _505
REMARK  213  A    between atoms: _505  and  _506
REMARK  214  A    between atoms: _509  and  _511
REMARK  215  A    between atoms: _511  and  _512
REMARK  216  A    between atoms: _511  and  _514
REMARK  217  A    between atoms: _514  and  _515
REMARK  218  A    between atoms: _519  and  _520
REMARK  219  A    between atoms: _525  and  _527
REMARK  220  A    between atoms: _527  and  _528
REMARK  221  A    between atoms: _527  and  _530
REMARK  222  A    between atoms: _530  and  _531
REMARK  223  A    between atoms: _534  and  _536
REMARK  224  A    between atoms: _536  and  _537
REMARK  225  A    between atoms: _536  and  _539
REMARK  226  A    between atoms: _539  and  _540
REMARK  227  A    between atoms: _545  and  _547
REMARK  228  A    between atoms: _547  and  _548
REMARK  229  A    between atoms: _547  and  _550
REMARK  230  A    between atoms: _553  and  _555
REMARK  231  A    between atoms: _555  and  _556
REMARK  232  A    between atoms: _555  and  _558
REMARK  233  A    between atoms: _558  and  _559
REMARK  234  A    between atoms: _562  and  _564
REMARK  235  A    between atoms: _564  and  _565
REMARK  236  A    between atoms: _567  and  _569
REMARK  237  A    between atoms: _569  and  _570
REMARK  238  A    between atoms: _569  and  _572
REMARK  239  A    between atoms: _572  and  _573
REMARK  240  A    between atoms: _573  and  _574
REMARK  241  A    between atoms: _574  and  _575
REMARK                            x       y       z     vdW  Elec       q    Type
REMARK                         _______ _______ _______ _____ _____    ______ ____
ROOT
ATOM      1  O   HOH     1       2.394  21.914  -0.900  0.00  0.00    +0.000 OA
ENDROOT
TORSDOF 0
