REMARK  Name = ../refined-set-2016/3m3e/3m3e_pocket.pdb
REMARK  117 active torsions:
REMARK  status: ('A' for Active; 'I' for Inactive)
REMARK    1  A    between atoms: _1  and  _3
REMARK    2  A    between atoms: _3  and  _4
REMARK    3  A    between atoms: _6  and  _8
REMARK    4  A    between atoms: _8  and  _9
REMARK    5  A    between atoms: _8  and  _11
REMARK    6  A    between atoms: _11  and  _12
REMARK    7  A    between atoms: _18  and  _19
REMARK    8  A    between atoms: _24  and  _26
REMARK    9  A    between atoms: _26  and  _27
REMARK   10  A    between atoms: _26  and  _29
REMARK   11  A    between atoms: _29  and  _30
REMARK   12  A    between atoms: _35  and  _37
REMARK   13  A    between atoms: _37  and  _38
REMARK   14  A    between atoms: _37  and  _40
REMARK   15  A    between atoms: _40  and  _41
REMARK   16  A    between atoms: _44  and  _46
REMARK   17  A    between atoms: _46  and  _47
REMARK   18  A    between atoms: _46  and  _49
REMARK   19  A    between atoms: _49  and  _50
REMARK   20  A    between atoms: _53  and  _55
REMARK   21  A    between atoms: _55  and  _56
REMARK   22  A    between atoms: _55  and  _58
REMARK   23  A    between atoms: _58  and  _59
REMARK   24  A    between atoms: _64  and  _66
REMARK   25  A    between atoms: _66  and  _67
REMARK   26  A    between atoms: _66  and  _69
REMARK   27  A    between atoms: _69  and  _70
REMARK   28  A    between atoms: _75  and  _76
REMARK   29  A    between atoms: _78  and  _80
REMARK   30  A    between atoms: _80  and  _81
REMARK   31  A    between atoms: _80  and  _83
REMARK   32  A    between atoms: _83  and  _84
REMARK   33  A    between atoms: _89  and  _91
REMARK   34  A    between atoms: _91  and  _92
REMARK   35  A    between atoms: _91  and  _94
REMARK   36  A    between atoms: _94  and  _95
REMARK   37  A    between atoms: _98  and  _100
REMARK   38  A    between atoms: _100  and  _101
REMARK   39  A    between atoms: _104  and  _106
REMARK   40  A    between atoms: _106  and  _107
REMARK   41  A    between atoms: _106  and  _109
REMARK   42  A    between atoms: _109  and  _110
REMARK   43  A    between atoms: _116  and  _118
REMARK   44  A    between atoms: _118  and  _119
REMARK   45  A    between atoms: _118  and  _121
REMARK   46  A    between atoms: _121  and  _122
REMARK   47  A    between atoms: _122  and  _123
REMARK   48  A    between atoms: _123  and  _124
REMARK   49  A    between atoms: _133  and  _135
REMARK   50  A    between atoms: _135  and  _136
REMARK   51  A    between atoms: _135  and  _138
REMARK   52  A    between atoms: _138  and  _139
REMARK   53  A    between atoms: _139  and  _140
REMARK   54  A    between atoms: _145  and  _147
REMARK   55  A    between atoms: _147  and  _148
REMARK   56  A    between atoms: _151  and  _153
REMARK   57  A    between atoms: _153  and  _154
REMARK   58  A    between atoms: _153  and  _156
REMARK   59  A    between atoms: _159  and  _161
REMARK   60  A    between atoms: _161  and  _162
REMARK   61  A    between atoms: _161  and  _164
REMARK   62  A    between atoms: _164  and  _165
REMARK   63  A    between atoms: _168  and  _170
REMARK   64  A    between atoms: _170  and  _171
REMARK   65  A    between atoms: _170  and  _173
REMARK   66  A    between atoms: _173  and  _174
REMARK   67  A    between atoms: _180  and  _182
REMARK   68  A    between atoms: _182  and  _183
REMARK   69  A    between atoms: _182  and  _185
REMARK   70  A    between atoms: _185  and  _186
REMARK   71  A    between atoms: _191  and  _193
REMARK   72  A    between atoms: _193  and  _194
REMARK   73  A    between atoms: _193  and  _196
REMARK   74  A    between atoms: _196  and  _197
REMARK   75  A    between atoms: _199  and  _201
REMARK   76  A    between atoms: _201  and  _202
REMARK   77  A    between atoms: _201  and  _204
REMARK   78  A    between atoms: _204  and  _205
REMARK   79  A    between atoms: _205  and  _206
REMARK   80  A    between atoms: _206  and  _207
REMARK   81  A    between atoms: _217  and  _218
REMARK   82  A    between atoms: _223  and  _225
REMARK   83  A    between atoms: _225  and  _226
REMARK   84  A    between atoms: _225  and  _228
REMARK   85  A    between atoms: _228  and  _229
REMARK   86  A    between atoms: _239  and  _241
REMARK   87  A    between atoms: _241  and  _242
REMARK   88  A    between atoms: _241  and  _244
REMARK   89  A    between atoms: _244  and  _245
REMARK   90  A    between atoms: _248  and  _250
REMARK   91  A    between atoms: _250  and  _251
REMARK   92  A    between atoms: _250  and  _253
REMARK   93  A    between atoms: _256  and  _258
REMARK   94  A    between atoms: _258  and  _259
REMARK   95  A    between atoms: _258  and  _261
REMARK   96  A    between atoms: _261  and  _262
REMARK   97  A    between atoms: _262  and  _263
REMARK   98  A    between atoms: _266  and  _268
REMARK   99  A    between atoms: _268  and  _269
REMARK  100  A    between atoms: _268  and  _271
REMARK  101  A    between atoms: _271  and  _272
REMARK  102  A    between atoms: _272  and  _273
REMARK  103  A    between atoms: _278  and  _280
REMARK  104  A    between atoms: _280  and  _281
REMARK  105  A    between atoms: _280  and  _283
REMARK  106  A    between atoms: _283  and  _284
REMARK  107  A    between atoms: _284  and  _285
REMARK  108  A    between atoms: _285  and  _286
REMARK  109  A    between atoms: _295  and  _297
REMARK  110  A    between atoms: _297  and  _298
REMARK  111  A    between atoms: _297  and  _300
REMARK  112  A    between atoms: _300  and  _301
REMARK  113  A    between atoms: _301  and  _302
REMARK  114  A    between atoms: _307  and  _309
REMARK  115  A    between atoms: _309  and  _310
REMARK  116  A    between atoms: _309  and  _312
REMARK  117  A    between atoms: _312  and  _313
REMARK                            x       y       z     vdW  Elec       q    Type
REMARK                         _______ _______ _______ _____ _____    ______ ____
ROOT
ATOM      1  C   ASN A   2      38.324   3.340  -1.021  0.00  0.00    +0.244 C 
ATOM      2  N   PRO A   3      38.589   2.542   0.026  0.00  0.00    -0.272 N 
ATOM      3  CD  PRO A   3      38.896   3.154   1.334  0.00  0.00    +0.094 C 
ATOM      4  CG  PRO A   3      39.283   1.953   2.187  0.00  0.00    +0.024 C 
ATOM      5  CB  PRO A   3      39.820   0.962   1.209  0.00  0.00    +0.031 C 
ATOM      6  CA  PRO A   3      38.810   1.095   0.078  0.00  0.00    +0.152 C 
ATOM      7  O   ASN A   2      38.234   4.561  -0.895  0.00  0.00    -0.273 OA
ENDROOT
BRANCH   6   8
ATOM      8  C   PRO A   3      37.581   0.232   0.339  0.00  0.00    +0.241 C 
ATOM      9  N   ASN A   4      36.464   0.866   0.680  0.00  0.00    -0.298 N 
ATOM     10  H   ASN A   4      36.466   1.905   0.731  0.00  0.00    +0.150 HD
ATOM     11  O   PRO A   3      37.653  -0.995   0.237  0.00  0.00    -0.273 OA
BRANCH   9  12
ATOM     12  CA  ASN A   4      35.235   0.142   0.985  0.00  0.00    +0.146 C 
BRANCH  12  13
ATOM     13  C   ASN A   4      34.342  -0.163  -0.207  0.00  0.00    +0.227 C 
ATOM     14  O   ASN A   4      34.137   0.689  -1.050  0.00  0.00    -0.286 OA
ENDBRANCH  12  13
BRANCH  12  15
ATOM     15  CB  ASN A   4      34.431   0.925   2.023  0.00  0.00    +0.112 C 
BRANCH  15  16
ATOM     16  CG  ASN A   4      35.208   1.138   3.296  0.00  0.00    +0.222 C 
ATOM     17  ND2 ASN A   4      35.125   2.341   3.874  0.00  0.00    -0.329 N 
ATOM     18 HD21 ASN A   4      35.642   2.531   4.756  0.00  0.00    +0.145 HD
ATOM     19 HD22 ASN A   4      34.544   3.087   3.441  0.00  0.00    +0.145 HD
ATOM     20  OD1 ASN A   4      35.874   0.227   3.759  0.00  0.00    -0.275 OA
ENDBRANCH  15  16
ENDBRANCH  12  15
ENDBRANCH   9  12
ENDBRANCH   6   8
BRANCH   1  21
ATOM     21  CA  ASN A   2      38.213   2.703  -2.404  0.00  0.00    +0.158 C 
BRANCH  21  23
ATOM     22  C   GLY A   1      37.706   0.389  -2.957  0.00  0.00    +0.240 C 
ATOM     23  N   ASN A   2      37.311   1.555  -2.459  0.00  0.00    -0.297 N 
ATOM     24  H   ASN A   2      36.340   1.653  -2.101  0.00  0.00    +0.150 HD
ATOM     25  O   GLY A   1      38.850   0.198  -3.365  0.00  0.00    -0.274 OA
BRANCH  22  26
ATOM     26  CA  GLY A   1      36.689  -0.739  -2.997  0.00  0.00    +0.169 C 
BRANCH  26  27
ATOM     27  N   GLY A   1      37.285  -1.878  -3.669  0.00  0.00    -0.236 NA
ATOM     28  H   GLY A   1      37.741  -2.624  -3.105  0.00  0.00    +0.142 HD
ENDBRANCH  26  27
ENDBRANCH  22  26
ENDBRANCH  21  23
BRANCH  21  29
ATOM     29  CB  ASN A   2      37.747   3.771  -3.396  0.00  0.00    +0.114 C 
BRANCH  29  30
ATOM     30  CG  ASN A   2      36.307   4.208  -3.149  0.00  0.00    +0.222 C 
ATOM     31  ND2 ASN A   2      35.634   3.558  -2.201  0.00  0.00    -0.329 N 
ATOM     32 HD21 ASN A   2      36.096   2.796  -1.664  0.00  0.00    +0.145 HD
ATOM     33 HD22 ASN A   2      34.646   3.812  -1.997  0.00  0.00    +0.145 HD
ATOM     34  OD1 ASN A   2      35.806   5.112  -3.808  0.00  0.00    -0.275 OA
ENDBRANCH  29  30
ENDBRANCH  21  29
ENDBRANCH   1  21
TORSDOF 11
REMARK  Name = ../refined-set-2016/3m3e/3m3e_pocket.pdb
REMARK  117 active torsions:
REMARK  status: ('A' for Active; 'I' for Inactive)
REMARK    1  A    between atoms: _1  and  _3
REMARK    2  A    between atoms: _3  and  _4
REMARK    3  A    between atoms: _6  and  _8
REMARK    4  A    between atoms: _8  and  _9
REMARK    5  A    between atoms: _8  and  _11
REMARK    6  A    between atoms: _11  and  _12
REMARK    7  A    between atoms: _18  and  _19
REMARK    8  A    between atoms: _24  and  _26
REMARK    9  A    between atoms: _26  and  _27
REMARK   10  A    between atoms: _26  and  _29
REMARK   11  A    between atoms: _29  and  _30
REMARK   12  A    between atoms: _35  and  _37
REMARK   13  A    between atoms: _37  and  _38
REMARK   14  A    between atoms: _37  and  _40
REMARK   15  A    between atoms: _40  and  _41
REMARK   16  A    between atoms: _44  and  _46
REMARK   17  A    between atoms: _46  and  _47
REMARK   18  A    between atoms: _46  and  _49
REMARK   19  A    between atoms: _49  and  _50
REMARK   20  A    between atoms: _53  and  _55
REMARK   21  A    between atoms: _55  and  _56
REMARK   22  A    between atoms: _55  and  _58
REMARK   23  A    between atoms: _58  and  _59
REMARK   24  A    between atoms: _64  and  _66
REMARK   25  A    between atoms: _66  and  _67
REMARK   26  A    between atoms: _66  and  _69
REMARK   27  A    between atoms: _69  and  _70
REMARK   28  A    between atoms: _75  and  _76
REMARK   29  A    between atoms: _78  and  _80
REMARK   30  A    between atoms: _80  and  _81
REMARK   31  A    between atoms: _80  and  _83
REMARK   32  A    between atoms: _83  and  _84
REMARK   33  A    between atoms: _89  and  _91
REMARK   34  A    between atoms: _91  and  _92
REMARK   35  A    between atoms: _91  and  _94
REMARK   36  A    between atoms: _94  and  _95
REMARK   37  A    between atoms: _98  and  _100
REMARK   38  A    between atoms: _100  and  _101
REMARK   39  A    between atoms: _104  and  _106
REMARK   40  A    between atoms: _106  and  _107
REMARK   41  A    between atoms: _106  and  _109
REMARK   42  A    between atoms: _109  and  _110
REMARK   43  A    between atoms: _116  and  _118
REMARK   44  A    between atoms: _118  and  _119
REMARK   45  A    between atoms: _118  and  _121
REMARK   46  A    between atoms: _121  and  _122
REMARK   47  A    between atoms: _122  and  _123
REMARK   48  A    between atoms: _123  and  _124
REMARK   49  A    between atoms: _133  and  _135
REMARK   50  A    between atoms: _135  and  _136
REMARK   51  A    between atoms: _135  and  _138
REMARK   52  A    between atoms: _138  and  _139
REMARK   53  A    between atoms: _139  and  _140
REMARK   54  A    between atoms: _145  and  _147
REMARK   55  A    between atoms: _147  and  _148
REMARK   56  A    between atoms: _151  and  _153
REMARK   57  A    between atoms: _153  and  _154
REMARK   58  A    between atoms: _153  and  _156
REMARK   59  A    between atoms: _159  and  _161
REMARK   60  A    between atoms: _161  and  _162
REMARK   61  A    between atoms: _161  and  _164
REMARK   62  A    between atoms: _164  and  _165
REMARK   63  A    between atoms: _168  and  _170
REMARK   64  A    between atoms: _170  and  _171
REMARK   65  A    between atoms: _170  and  _173
REMARK   66  A    between atoms: _173  and  _174
REMARK   67  A    between atoms: _180  and  _182
REMARK   68  A    between atoms: _182  and  _183
REMARK   69  A    between atoms: _182  and  _185
REMARK   70  A    between atoms: _185  and  _186
REMARK   71  A    between atoms: _191  and  _193
REMARK   72  A    between atoms: _193  and  _194
REMARK   73  A    between atoms: _193  and  _196
REMARK   74  A    between atoms: _196  and  _197
REMARK   75  A    between atoms: _199  and  _201
REMARK   76  A    between atoms: _201  and  _202
REMARK   77  A    between atoms: _201  and  _204
REMARK   78  A    between atoms: _204  and  _205
REMARK   79  A    between atoms: _205  and  _206
REMARK   80  A    between atoms: _206  and  _207
REMARK   81  A    between atoms: _217  and  _218
REMARK   82  A    between atoms: _223  and  _225
REMARK   83  A    between atoms: _225  and  _226
REMARK   84  A    between atoms: _225  and  _228
REMARK   85  A    between atoms: _228  and  _229
REMARK   86  A    between atoms: _239  and  _241
REMARK   87  A    between atoms: _241  and  _242
REMARK   88  A    between atoms: _241  and  _244
REMARK   89  A    between atoms: _244  and  _245
REMARK   90  A    between atoms: _248  and  _250
REMARK   91  A    between atoms: _250  and  _251
REMARK   92  A    between atoms: _250  and  _253
REMARK   93  A    between atoms: _256  and  _258
REMARK   94  A    between atoms: _258  and  _259
REMARK   95  A    between atoms: _258  and  _261
REMARK   96  A    between atoms: _261  and  _262
REMARK   97  A    between atoms: _262  and  _263
REMARK   98  A    between atoms: _266  and  _268
REMARK   99  A    between atoms: _268  and  _269
REMARK  100  A    between atoms: _268  and  _271
REMARK  101  A    between atoms: _271  and  _272
REMARK  102  A    between atoms: _272  and  _273
REMARK  103  A    between atoms: _278  and  _280
REMARK  104  A    between atoms: _280  and  _281
REMARK  105  A    between atoms: _280  and  _283
REMARK  106  A    between atoms: _283  and  _284
REMARK  107  A    between atoms: _284  and  _285
REMARK  108  A    between atoms: _285  and  _286
REMARK  109  A    between atoms: _295  and  _297
REMARK  110  A    between atoms: _297  and  _298
REMARK  111  A    between atoms: _297  and  _300
REMARK  112  A    between atoms: _300  and  _301
REMARK  113  A    between atoms: _301  and  _302
REMARK  114  A    between atoms: _307  and  _309
REMARK  115  A    between atoms: _309  and  _310
REMARK  116  A    between atoms: _309  and  _312
REMARK  117  A    between atoms: _312  and  _313
REMARK                            x       y       z     vdW  Elec       q    Type
REMARK                         _______ _______ _______ _____ _____    ______ ____
ROOT
ATOM      1  C   THR A   1      30.218  -1.342   2.637  0.00  0.00    +0.241 C 
ATOM      2  O   THR A   1      31.096  -1.935   3.258  0.00  0.00    -0.274 OA
ATOM      3  N   THR A   2      29.390  -0.476   3.213  0.00  0.00    -0.296 N 
ATOM      4  H   THR A   2      28.704   0.043   2.628  0.00  0.00    +0.150 HD
ENDROOT
BRANCH   1   5
ATOM      5  CA  THR A   1      30.036  -1.568   1.131  0.00  0.00    +0.172 C 
BRANCH   5   6
ATOM      6  N   THR A   1      31.319  -1.754   0.462  0.00  0.00    -0.236 NA
ATOM      7  H   THR A   1      32.121  -2.110   1.019  0.00  0.00    +0.142 HD
ENDBRANCH   5   6
BRANCH   5   8
ATOM      8  CB  THR A   1      29.146  -2.834   0.968  0.00  0.00    +0.135 C 
ATOM      9  CG2 THR A   1      27.797  -2.648   1.671  0.00  0.00    +0.034 C 
BRANCH   8  10
ATOM     10  OG1 THR A   1      28.925  -3.094  -0.423  0.00  0.00    -0.383 OA
ATOM     11  HG1 THR A   1      28.470  -2.317  -0.834  0.00  0.00    +0.210 HD
ENDBRANCH   8  10
ENDBRANCH   5   8
ENDBRANCH   1   5
BRANCH   3  12
ATOM     12  CA  THR A   2      29.428  -0.242   4.648  0.00  0.00    +0.164 C 
BRANCH  12  13
ATOM     13  C   THR A   2      27.983  -0.128   5.138  0.00  0.00    +0.229 C 
ATOM     14  O   THR A   2      27.079   0.259   4.384  0.00  0.00    -0.286 OA
ENDBRANCH  12  13
BRANCH  12  15
ATOM     15  CB  THR A   2      30.187   1.057   5.034  0.00  0.00    +0.136 C 
ATOM     16  CG2 THR A   2      31.538   1.126   4.305  0.00  0.00    +0.034 C 
BRANCH  15  17
ATOM     17  OG1 THR A   2      29.387   2.207   4.714  0.00  0.00    -0.382 OA
ATOM     18  HG1 THR A   2      29.879   3.029   4.963  0.00  0.00    +0.210 HD
ENDBRANCH  15  17
ENDBRANCH  12  15
ENDBRANCH   3  12
TORSDOF 8
REMARK  Name = ../refined-set-2016/3m3e/3m3e_pocket.pdb
REMARK  117 active torsions:
REMARK  status: ('A' for Active; 'I' for Inactive)
REMARK    1  A    between atoms: _1  and  _3
REMARK    2  A    between atoms: _3  and  _4
REMARK    3  A    between atoms: _6  and  _8
REMARK    4  A    between atoms: _8  and  _9
REMARK    5  A    between atoms: _8  and  _11
REMARK    6  A    between atoms: _11  and  _12
REMARK    7  A    between atoms: _18  and  _19
REMARK    8  A    between atoms: _24  and  _26
REMARK    9  A    between atoms: _26  and  _27
REMARK   10  A    between atoms: _26  and  _29
REMARK   11  A    between atoms: _29  and  _30
REMARK   12  A    between atoms: _35  and  _37
REMARK   13  A    between atoms: _37  and  _38
REMARK   14  A    between atoms: _37  and  _40
REMARK   15  A    between atoms: _40  and  _41
REMARK   16  A    between atoms: _44  and  _46
REMARK   17  A    between atoms: _46  and  _47
REMARK   18  A    between atoms: _46  and  _49
REMARK   19  A    between atoms: _49  and  _50
REMARK   20  A    between atoms: _53  and  _55
REMARK   21  A    between atoms: _55  and  _56
REMARK   22  A    between atoms: _55  and  _58
REMARK   23  A    between atoms: _58  and  _59
REMARK   24  A    between atoms: _64  and  _66
REMARK   25  A    between atoms: _66  and  _67
REMARK   26  A    between atoms: _66  and  _69
REMARK   27  A    between atoms: _69  and  _70
REMARK   28  A    between atoms: _75  and  _76
REMARK   29  A    between atoms: _78  and  _80
REMARK   30  A    between atoms: _80  and  _81
REMARK   31  A    between atoms: _80  and  _83
REMARK   32  A    between atoms: _83  and  _84
REMARK   33  A    between atoms: _89  and  _91
REMARK   34  A    between atoms: _91  and  _92
REMARK   35  A    between atoms: _91  and  _94
REMARK   36  A    between atoms: _94  and  _95
REMARK   37  A    between atoms: _98  and  _100
REMARK   38  A    between atoms: _100  and  _101
REMARK   39  A    between atoms: _104  and  _106
REMARK   40  A    between atoms: _106  and  _107
REMARK   41  A    between atoms: _106  and  _109
REMARK   42  A    between atoms: _109  and  _110
REMARK   43  A    between atoms: _116  and  _118
REMARK   44  A    between atoms: _118  and  _119
REMARK   45  A    between atoms: _118  and  _121
REMARK   46  A    between atoms: _121  and  _122
REMARK   47  A    between atoms: _122  and  _123
REMARK   48  A    between atoms: _123  and  _124
REMARK   49  A    between atoms: _133  and  _135
REMARK   50  A    between atoms: _135  and  _136
REMARK   51  A    between atoms: _135  and  _138
REMARK   52  A    between atoms: _138  and  _139
REMARK   53  A    between atoms: _139  and  _140
REMARK   54  A    between atoms: _145  and  _147
REMARK   55  A    between atoms: _147  and  _148
REMARK   56  A    between atoms: _151  and  _153
REMARK   57  A    between atoms: _153  and  _154
REMARK   58  A    between atoms: _153  and  _156
REMARK   59  A    between atoms: _159  and  _161
REMARK   60  A    between atoms: _161  and  _162
REMARK   61  A    between atoms: _161  and  _164
REMARK   62  A    between atoms: _164  and  _165
REMARK   63  A    between atoms: _168  and  _170
REMARK   64  A    between atoms: _170  and  _171
REMARK   65  A    between atoms: _170  and  _173
REMARK   66  A    between atoms: _173  and  _174
REMARK   67  A    between atoms: _180  and  _182
REMARK   68  A    between atoms: _182  and  _183
REMARK   69  A    between atoms: _182  and  _185
REMARK   70  A    between atoms: _185  and  _186
REMARK   71  A    between atoms: _191  and  _193
REMARK   72  A    between atoms: _193  and  _194
REMARK   73  A    between atoms: _193  and  _196
REMARK   74  A    between atoms: _196  and  _197
REMARK   75  A    between atoms: _199  and  _201
REMARK   76  A    between atoms: _201  and  _202
REMARK   77  A    between atoms: _201  and  _204
REMARK   78  A    between atoms: _204  and  _205
REMARK   79  A    between atoms: _205  and  _206
REMARK   80  A    between atoms: _206  and  _207
REMARK   81  A    between atoms: _217  and  _218
REMARK   82  A    between atoms: _223  and  _225
REMARK   83  A    between atoms: _225  and  _226
REMARK   84  A    between atoms: _225  and  _228
REMARK   85  A    between atoms: _228  and  _229
REMARK   86  A    between atoms: _239  and  _241
REMARK   87  A    between atoms: _241  and  _242
REMARK   88  A    between atoms: _241  and  _244
REMARK   89  A    between atoms: _244  and  _245
REMARK   90  A    between atoms: _248  and  _250
REMARK   91  A    between atoms: _250  and  _251
REMARK   92  A    between atoms: _250  and  _253
REMARK   93  A    between atoms: _256  and  _258
REMARK   94  A    between atoms: _258  and  _259
REMARK   95  A    between atoms: _258  and  _261
REMARK   96  A    between atoms: _261  and  _262
REMARK   97  A    between atoms: _262  and  _263
REMARK   98  A    between atoms: _266  and  _268
REMARK   99  A    between atoms: _268  and  _269
REMARK  100  A    between atoms: _268  and  _271
REMARK  101  A    between atoms: _271  and  _272
REMARK  102  A    between atoms: _272  and  _273
REMARK  103  A    between atoms: _278  and  _280
REMARK  104  A    between atoms: _280  and  _281
REMARK  105  A    between atoms: _280  and  _283
REMARK  106  A    between atoms: _283  and  _284
REMARK  107  A    between atoms: _284  and  _285
REMARK  108  A    between atoms: _285  and  _286
REMARK  109  A    between atoms: _295  and  _297
REMARK  110  A    between atoms: _297  and  _298
REMARK  111  A    between atoms: _297  and  _300
REMARK  112  A    between atoms: _300  and  _301
REMARK  113  A    between atoms: _301  and  _302
REMARK  114  A    between atoms: _307  and  _309
REMARK  115  A    between atoms: _309  and  _310
REMARK  116  A    between atoms: _309  and  _312
REMARK  117  A    between atoms: _312  and  _313
REMARK                            x       y       z     vdW  Elec       q    Type
REMARK                         _______ _______ _______ _____ _____    ______ ____
ROOT
ATOM      1  CB  ASN A   1      26.854   3.306   9.620  0.00  0.00    +0.110 C 
ENDROOT
BRANCH   1   2
ATOM      2  CG  ASN A   1      28.050   3.230   8.691  0.00  0.00    +0.221 C 
ATOM      3  OD1 ASN A   1      29.154   2.901   9.115  0.00  0.00    -0.275 OA
ATOM      4  ND2 ASN A   1      27.831   3.515   7.414  0.00  0.00    -0.329 N 
ATOM      5 HD21 ASN A   1      26.879   3.790   7.098  0.00  0.00    +0.145 HD
ATOM      6 HD22 ASN A   1      28.611   3.464   6.729  0.00  0.00    +0.145 HD
ENDBRANCH   1   2
BRANCH   1   7
ATOM      7  CA  ASN A   1      26.314   1.923   9.991  0.00  0.00    +0.142 C 
BRANCH   7   8
ATOM      8  N   ASN A   1      26.020   1.189   8.771  0.00  0.00    -0.239 NA
ATOM      9  H   ASN A   1      25.170   1.424   8.219  0.00  0.00    +0.142 HD
ENDBRANCH   7   8
BRANCH   7  10
ATOM     10  C   ASN A   1      25.136   2.088  10.933  0.00  0.00    +0.225 C 
ATOM     11  O   ASN A   1      23.985   2.116  10.511  0.00  0.00    -0.287 OA
ENDBRANCH   7  10
ENDBRANCH   1   7
TORSDOF 4
REMARK  Name = ../refined-set-2016/3m3e/3m3e_pocket.pdb
REMARK  117 active torsions:
REMARK  status: ('A' for Active; 'I' for Inactive)
REMARK    1  A    between atoms: _1  and  _3
REMARK    2  A    between atoms: _3  and  _4
REMARK    3  A    between atoms: _6  and  _8
REMARK    4  A    between atoms: _8  and  _9
REMARK    5  A    between atoms: _8  and  _11
REMARK    6  A    between atoms: _11  and  _12
REMARK    7  A    between atoms: _18  and  _19
REMARK    8  A    between atoms: _24  and  _26
REMARK    9  A    between atoms: _26  and  _27
REMARK   10  A    between atoms: _26  and  _29
REMARK   11  A    between atoms: _29  and  _30
REMARK   12  A    between atoms: _35  and  _37
REMARK   13  A    between atoms: _37  and  _38
REMARK   14  A    between atoms: _37  and  _40
REMARK   15  A    between atoms: _40  and  _41
REMARK   16  A    between atoms: _44  and  _46
REMARK   17  A    between atoms: _46  and  _47
REMARK   18  A    between atoms: _46  and  _49
REMARK   19  A    between atoms: _49  and  _50
REMARK   20  A    between atoms: _53  and  _55
REMARK   21  A    between atoms: _55  and  _56
REMARK   22  A    between atoms: _55  and  _58
REMARK   23  A    between atoms: _58  and  _59
REMARK   24  A    between atoms: _64  and  _66
REMARK   25  A    between atoms: _66  and  _67
REMARK   26  A    between atoms: _66  and  _69
REMARK   27  A    between atoms: _69  and  _70
REMARK   28  A    between atoms: _75  and  _76
REMARK   29  A    between atoms: _78  and  _80
REMARK   30  A    between atoms: _80  and  _81
REMARK   31  A    between atoms: _80  and  _83
REMARK   32  A    between atoms: _83  and  _84
REMARK   33  A    between atoms: _89  and  _91
REMARK   34  A    between atoms: _91  and  _92
REMARK   35  A    between atoms: _91  and  _94
REMARK   36  A    between atoms: _94  and  _95
REMARK   37  A    between atoms: _98  and  _100
REMARK   38  A    between atoms: _100  and  _101
REMARK   39  A    between atoms: _104  and  _106
REMARK   40  A    between atoms: _106  and  _107
REMARK   41  A    between atoms: _106  and  _109
REMARK   42  A    between atoms: _109  and  _110
REMARK   43  A    between atoms: _116  and  _118
REMARK   44  A    between atoms: _118  and  _119
REMARK   45  A    between atoms: _118  and  _121
REMARK   46  A    between atoms: _121  and  _122
REMARK   47  A    between atoms: _122  and  _123
REMARK   48  A    between atoms: _123  and  _124
REMARK   49  A    between atoms: _133  and  _135
REMARK   50  A    between atoms: _135  and  _136
REMARK   51  A    between atoms: _135  and  _138
REMARK   52  A    between atoms: _138  and  _139
REMARK   53  A    between atoms: _139  and  _140
REMARK   54  A    between atoms: _145  and  _147
REMARK   55  A    between atoms: _147  and  _148
REMARK   56  A    between atoms: _151  and  _153
REMARK   57  A    between atoms: _153  and  _154
REMARK   58  A    between atoms: _153  and  _156
REMARK   59  A    between atoms: _159  and  _161
REMARK   60  A    between atoms: _161  and  _162
REMARK   61  A    between atoms: _161  and  _164
REMARK   62  A    between atoms: _164  and  _165
REMARK   63  A    between atoms: _168  and  _170
REMARK   64  A    between atoms: _170  and  _171
REMARK   65  A    between atoms: _170  and  _173
REMARK   66  A    between atoms: _173  and  _174
REMARK   67  A    between atoms: _180  and  _182
REMARK   68  A    between atoms: _182  and  _183
REMARK   69  A    between atoms: _182  and  _185
REMARK   70  A    between atoms: _185  and  _186
REMARK   71  A    between atoms: _191  and  _193
REMARK   72  A    between atoms: _193  and  _194
REMARK   73  A    between atoms: _193  and  _196
REMARK   74  A    between atoms: _196  and  _197
REMARK   75  A    between atoms: _199  and  _201
REMARK   76  A    between atoms: _201  and  _202
REMARK   77  A    between atoms: _201  and  _204
REMARK   78  A    between atoms: _204  and  _205
REMARK   79  A    between atoms: _205  and  _206
REMARK   80  A    between atoms: _206  and  _207
REMARK   81  A    between atoms: _217  and  _218
REMARK   82  A    between atoms: _223  and  _225
REMARK   83  A    between atoms: _225  and  _226
REMARK   84  A    between atoms: _225  and  _228
REMARK   85  A    between atoms: _228  and  _229
REMARK   86  A    between atoms: _239  and  _241
REMARK   87  A    between atoms: _241  and  _242
REMARK   88  A    between atoms: _241  and  _244
REMARK   89  A    between atoms: _244  and  _245
REMARK   90  A    between atoms: _248  and  _250
REMARK   91  A    between atoms: _250  and  _251
REMARK   92  A    between atoms: _250  and  _253
REMARK   93  A    between atoms: _256  and  _258
REMARK   94  A    between atoms: _258  and  _259
REMARK   95  A    between atoms: _258  and  _261
REMARK   96  A    between atoms: _261  and  _262
REMARK   97  A    between atoms: _262  and  _263
REMARK   98  A    between atoms: _266  and  _268
REMARK   99  A    between atoms: _268  and  _269
REMARK  100  A    between atoms: _268  and  _271
REMARK  101  A    between atoms: _271  and  _272
REMARK  102  A    between atoms: _272  and  _273
REMARK  103  A    between atoms: _278  and  _280
REMARK  104  A    between atoms: _280  and  _281
REMARK  105  A    between atoms: _280  and  _283
REMARK  106  A    between atoms: _283  and  _284
REMARK  107  A    between atoms: _284  and  _285
REMARK  108  A    between atoms: _285  and  _286
REMARK  109  A    between atoms: _295  and  _297
REMARK  110  A    between atoms: _297  and  _298
REMARK  111  A    between atoms: _297  and  _300
REMARK  112  A    between atoms: _300  and  _301
REMARK  113  A    between atoms: _301  and  _302
REMARK  114  A    between atoms: _307  and  _309
REMARK  115  A    between atoms: _309  and  _310
REMARK  116  A    between atoms: _309  and  _312
REMARK  117  A    between atoms: _312  and  _313
REMARK                            x       y       z     vdW  Elec       q    Type
REMARK                         _______ _______ _______ _____ _____    ______ ____
ROOT
ATOM      1  CG  TYR A   1      30.372   6.496  12.072  0.00  0.00    -0.020 A 
ATOM      2  CD2 TYR A   1      30.730   7.829  11.864  0.00  0.00    -0.001 A 
ATOM      3  CE2 TYR A   1      30.627   8.414  10.604  0.00  0.00    +0.036 A 
ATOM      4  CZ  TYR A   1      30.166   7.662   9.533  0.00  0.00    +0.134 A 
ATOM      5  CE1 TYR A   1      29.807   6.334   9.714  0.00  0.00    +0.036 A 
ATOM      6  CD1 TYR A   1      29.909   5.760  10.982  0.00  0.00    -0.001 A 
ENDROOT
BRANCH   4   7
ATOM      7  OH  TYR A   1      30.056   8.242   8.290  0.00  0.00    -0.506 OA
ATOM      8  HH  TYR A   1      29.715   7.574   7.644  0.00  0.00    +0.292 HD
ENDBRANCH   4   7
BRANCH   1   9
ATOM      9  CB  TYR A   1      30.487   5.866  13.442  0.00  0.00    +0.051 C 
BRANCH   9  10
ATOM     10  CA  TYR A   1      29.285   6.087  14.370  0.00  0.00    +0.137 C 
BRANCH  10  11
ATOM     11  N   TYR A   1      29.361   7.380  15.039  0.00  0.00    -0.239 NA
ATOM     12  H   TYR A   1      30.284   7.846  15.148  0.00  0.00    +0.142 HD
ENDBRANCH  10  11
BRANCH  10  13
ATOM     13  C   TYR A   1      29.354   5.063  15.497  0.00  0.00    +0.224 C 
ATOM     14  O   TYR A   1      30.438   4.768  15.976  0.00  0.00    -0.287 OA
ENDBRANCH  10  13
ENDBRANCH   9  10
ENDBRANCH   1   9
TORSDOF 5
REMARK  Name = ../refined-set-2016/3m3e/3m3e_pocket.pdb
REMARK  117 active torsions:
REMARK  status: ('A' for Active; 'I' for Inactive)
REMARK    1  A    between atoms: _1  and  _3
REMARK    2  A    between atoms: _3  and  _4
REMARK    3  A    between atoms: _6  and  _8
REMARK    4  A    between atoms: _8  and  _9
REMARK    5  A    between atoms: _8  and  _11
REMARK    6  A    between atoms: _11  and  _12
REMARK    7  A    between atoms: _18  and  _19
REMARK    8  A    between atoms: _24  and  _26
REMARK    9  A    between atoms: _26  and  _27
REMARK   10  A    between atoms: _26  and  _29
REMARK   11  A    between atoms: _29  and  _30
REMARK   12  A    between atoms: _35  and  _37
REMARK   13  A    between atoms: _37  and  _38
REMARK   14  A    between atoms: _37  and  _40
REMARK   15  A    between atoms: _40  and  _41
REMARK   16  A    between atoms: _44  and  _46
REMARK   17  A    between atoms: _46  and  _47
REMARK   18  A    between atoms: _46  and  _49
REMARK   19  A    between atoms: _49  and  _50
REMARK   20  A    between atoms: _53  and  _55
REMARK   21  A    between atoms: _55  and  _56
REMARK   22  A    between atoms: _55  and  _58
REMARK   23  A    between atoms: _58  and  _59
REMARK   24  A    between atoms: _64  and  _66
REMARK   25  A    between atoms: _66  and  _67
REMARK   26  A    between atoms: _66  and  _69
REMARK   27  A    between atoms: _69  and  _70
REMARK   28  A    between atoms: _75  and  _76
REMARK   29  A    between atoms: _78  and  _80
REMARK   30  A    between atoms: _80  and  _81
REMARK   31  A    between atoms: _80  and  _83
REMARK   32  A    between atoms: _83  and  _84
REMARK   33  A    between atoms: _89  and  _91
REMARK   34  A    between atoms: _91  and  _92
REMARK   35  A    between atoms: _91  and  _94
REMARK   36  A    between atoms: _94  and  _95
REMARK   37  A    between atoms: _98  and  _100
REMARK   38  A    between atoms: _100  and  _101
REMARK   39  A    between atoms: _104  and  _106
REMARK   40  A    between atoms: _106  and  _107
REMARK   41  A    between atoms: _106  and  _109
REMARK   42  A    between atoms: _109  and  _110
REMARK   43  A    between atoms: _116  and  _118
REMARK   44  A    between atoms: _118  and  _119
REMARK   45  A    between atoms: _118  and  _121
REMARK   46  A    between atoms: _121  and  _122
REMARK   47  A    between atoms: _122  and  _123
REMARK   48  A    between atoms: _123  and  _124
REMARK   49  A    between atoms: _133  and  _135
REMARK   50  A    between atoms: _135  and  _136
REMARK   51  A    between atoms: _135  and  _138
REMARK   52  A    between atoms: _138  and  _139
REMARK   53  A    between atoms: _139  and  _140
REMARK   54  A    between atoms: _145  and  _147
REMARK   55  A    between atoms: _147  and  _148
REMARK   56  A    between atoms: _151  and  _153
REMARK   57  A    between atoms: _153  and  _154
REMARK   58  A    between atoms: _153  and  _156
REMARK   59  A    between atoms: _159  and  _161
REMARK   60  A    between atoms: _161  and  _162
REMARK   61  A    between atoms: _161  and  _164
REMARK   62  A    between atoms: _164  and  _165
REMARK   63  A    between atoms: _168  and  _170
REMARK   64  A    between atoms: _170  and  _171
REMARK   65  A    between atoms: _170  and  _173
REMARK   66  A    between atoms: _173  and  _174
REMARK   67  A    between atoms: _180  and  _182
REMARK   68  A    between atoms: _182  and  _183
REMARK   69  A    between atoms: _182  and  _185
REMARK   70  A    between atoms: _185  and  _186
REMARK   71  A    between atoms: _191  and  _193
REMARK   72  A    between atoms: _193  and  _194
REMARK   73  A    between atoms: _193  and  _196
REMARK   74  A    between atoms: _196  and  _197
REMARK   75  A    between atoms: _199  and  _201
REMARK   76  A    between atoms: _201  and  _202
REMARK   77  A    between atoms: _201  and  _204
REMARK   78  A    between atoms: _204  and  _205
REMARK   79  A    between atoms: _205  and  _206
REMARK   80  A    between atoms: _206  and  _207
REMARK   81  A    between atoms: _217  and  _218
REMARK   82  A    between atoms: _223  and  _225
REMARK   83  A    between atoms: _225  and  _226
REMARK   84  A    between atoms: _225  and  _228
REMARK   85  A    between atoms: _228  and  _229
REMARK   86  A    between atoms: _239  and  _241
REMARK   87  A    between atoms: _241  and  _242
REMARK   88  A    between atoms: _241  and  _244
REMARK   89  A    between atoms: _244  and  _245
REMARK   90  A    between atoms: _248  and  _250
REMARK   91  A    between atoms: _250  and  _251
REMARK   92  A    between atoms: _250  and  _253
REMARK   93  A    between atoms: _256  and  _258
REMARK   94  A    between atoms: _258  and  _259
REMARK   95  A    between atoms: _258  and  _261
REMARK   96  A    between atoms: _261  and  _262
REMARK   97  A    between atoms: _262  and  _263
REMARK   98  A    between atoms: _266  and  _268
REMARK   99  A    between atoms: _268  and  _269
REMARK  100  A    between atoms: _268  and  _271
REMARK  101  A    between atoms: _271  and  _272
REMARK  102  A    between atoms: _272  and  _273
REMARK  103  A    between atoms: _278  and  _280
REMARK  104  A    between atoms: _280  and  _281
REMARK  105  A    between atoms: _280  and  _283
REMARK  106  A    between atoms: _283  and  _284
REMARK  107  A    between atoms: _284  and  _285
REMARK  108  A    between atoms: _285  and  _286
REMARK  109  A    between atoms: _295  and  _297
REMARK  110  A    between atoms: _297  and  _298
REMARK  111  A    between atoms: _297  and  _300
REMARK  112  A    between atoms: _300  and  _301
REMARK  113  A    between atoms: _301  and  _302
REMARK  114  A    between atoms: _307  and  _309
REMARK  115  A    between atoms: _309  and  _310
REMARK  116  A    between atoms: _309  and  _312
REMARK  117  A    between atoms: _312  and  _313
REMARK                            x       y       z     vdW  Elec       q    Type
REMARK                         _______ _______ _______ _____ _____    ______ ____
ROOT
ATOM      1  C   ALA A   3      33.503  -3.299   5.517  0.00  0.00    +0.241 C 
ATOM      2  O   ALA A   3      34.291  -4.035   6.099  0.00  0.00    -0.273 OA
ATOM      3  N   PHE A   4      33.023  -3.557   4.300  0.00  0.00    -0.297 N 
ATOM      4  H   PHE A   4      32.353  -2.888   3.869  0.00  0.00    +0.150 HD
ENDROOT
BRANCH   1   5
ATOM      5  CA  ALA A   3      33.025  -2.015   6.178  0.00  0.00    +0.149 C 
ATOM      6  CB  ALA A   3      34.165  -0.985   6.206  0.00  0.00    +0.031 C 
BRANCH   5   8
ATOM      7  C   ILE A   2      31.222  -2.090   7.799  0.00  0.00    +0.241 C 
ATOM      8  N   ALA A   3      32.517  -2.223   7.530  0.00  0.00    -0.297 N 
ATOM      9  H   ALA A   3      33.176  -2.478   8.293  0.00  0.00    +0.150 HD
ATOM     10  O   ILE A   2      30.390  -1.822   6.935  0.00  0.00    -0.273 OA
BRANCH   7  11
ATOM     11  CA  ILE A   2      30.795  -2.295   9.245  0.00  0.00    +0.148 C 
BRANCH  11  14
ATOM     12  C   HIS A   1      31.180  -0.437  10.796  0.00  0.00    +0.239 C 
ATOM     13  O   HIS A   1      32.151  -0.996  11.313  0.00  0.00    -0.274 OA
ATOM     14  N   ILE A   2      30.461  -0.987   9.816  0.00  0.00    -0.297 N 
ATOM     15  H   ILE A   2      29.637  -0.471   9.445  0.00  0.00    +0.150 HD
BRANCH  12  16
ATOM     16  CA  HIS A   1      30.727   0.931  11.299  0.00  0.00    +0.151 C 
BRANCH  16  17
ATOM     17  N   HIS A   1      30.395   0.736  12.713  0.00  0.00    -0.238 NA
ATOM     18  H   HIS A   1      31.160   0.472  13.366  0.00  0.00    +0.142 HD
ENDBRANCH  16  17
BRANCH  16  19
ATOM     19  CB  HIS A   1      31.862   1.963  11.200  0.00  0.00    +0.074 C 
BRANCH  19  20
ATOM     20  CG  HIS A   1      32.451   2.130   9.831  0.00  0.00    +0.082 A 
ATOM     21  CD2 HIS A   1      33.698   1.880   9.365  0.00  0.00    +0.115 A 
ATOM     22  NE2 HIS A   1      33.739   2.305   8.060  0.00  0.00    -0.221 NA
ATOM     23  CE1 HIS A   1      32.557   2.794   7.731  0.00  0.00    +0.199 A 
ATOM     24  ND1 HIS A   1      31.761   2.697   8.781  0.00  0.00    -0.227 NA
ENDBRANCH  19  20
ENDBRANCH  16  19
ENDBRANCH  12  16
ENDBRANCH  11  14
BRANCH  11  25
ATOM     25  CB  ILE A   2      29.576  -3.262   9.283  0.00  0.00    +0.027 C 
ATOM     26  CG2 ILE A   2      29.960  -4.622   8.716  0.00  0.00    +0.002 C 
BRANCH  25  27
ATOM     27  CG1 ILE A   2      29.083  -3.428  10.725  0.00  0.00    +0.002 C 
ATOM     28  CD1 ILE A   2      27.815  -4.261  10.856  0.00  0.00    +0.000 C 
ENDBRANCH  25  27
ENDBRANCH  11  25
ENDBRANCH   7  11
ENDBRANCH   5   8
ENDBRANCH   1   5
BRANCH   3  29
ATOM     29  CA  PHE A   4      33.411  -4.754   3.552  0.00  0.00    +0.153 C 
BRANCH  29  30
ATOM     30  C   PHE A   4      34.402  -4.399   2.437  0.00  0.00    +0.241 C 
ATOM     31  N   ARG A   5      35.597  -4.983   2.479  0.00  0.00    -0.298 N 
ATOM     32  H   ARG A   5      35.807  -5.650   3.249  0.00  0.00    +0.150 HD
ATOM     33  O   PHE A   4      34.079  -3.619   1.546  0.00  0.00    -0.273 OA
BRANCH  31  34
ATOM     34  CA  ARG A   5      36.624  -4.712   1.471  0.00  0.00    +0.137 C 
BRANCH  34  35
ATOM     35  C   ARG A   5      37.025  -5.971   0.703  0.00  0.00    +0.227 C 
ATOM     36  O   ARG A   5      37.758  -6.815   1.215  0.00  0.00    -0.286 OA
ENDBRANCH  34  35
BRANCH  34  37
ATOM     37  CB  ARG A   5      37.855  -4.078   2.135  0.00  0.00    +0.031 C 
BRANCH  37  38
ATOM     38  CG  ARG A   5      37.551  -2.722   2.719  0.00  0.00    +0.045 C 
BRANCH  38  39
ATOM     39  CD  ARG A   5      38.732  -2.074   3.414  0.00  0.00    +0.174 C 
BRANCH  39  40
ATOM     40  NE  ARG A   5      38.249  -0.965   4.231  0.00  0.00    -0.265 N 
ATOM     41  CZ  ARG A   5      38.978  -0.260   5.087  0.00  0.00    +0.342 C 
ATOM     42  NH2 ARG A   5      38.405   0.717   5.785  0.00  0.00    -0.292 N 
ATOM     43 HH21 ARG A   5      38.968   1.275   6.458  0.00  0.00    +0.255 HD
ATOM     44 HH22 ARG A   5      37.394   0.923   5.658  0.00  0.00    +0.255 HD
ATOM     45  NH1 ARG A   5      40.265  -0.527   5.261  0.00  0.00    -0.292 N 
ATOM     46 HH11 ARG A   5      40.826   0.033   5.935  0.00  0.00    +0.255 HD
ATOM     47 HH12 ARG A   5      40.714  -1.296   4.724  0.00  0.00    +0.255 HD
ATOM     48  HE  ARG A   5      37.247  -0.705   4.134  0.00  0.00    +0.259 HD
ENDBRANCH  39  40
ENDBRANCH  38  39
ENDBRANCH  37  38
ENDBRANCH  34  37
ENDBRANCH  31  34
ENDBRANCH  29  30
BRANCH  29  49
ATOM     49  CB  PHE A   4      32.182  -5.425   2.926  0.00  0.00    +0.055 C 
BRANCH  49  50
ATOM     50  CG  PHE A   4      31.143  -5.868   3.924  0.00  0.00    -0.020 A 
ATOM     51  CD2 PHE A   4      30.214  -4.964   4.433  0.00  0.00    -0.004 A 
ATOM     52  CE2 PHE A   4      29.245  -5.374   5.334  0.00  0.00    -0.000 A 
ATOM     53  CZ  PHE A   4      29.193  -6.702   5.743  0.00  0.00    -0.000 A 
ATOM     54  CE1 PHE A   4      30.116  -7.614   5.245  0.00  0.00    -0.000 A 
ATOM     55  CD1 PHE A   4      31.083  -7.196   4.342  0.00  0.00    -0.004 A 
ENDBRANCH  49  50
ENDBRANCH  29  49
ENDBRANCH   3  29
TORSDOF 20
REMARK  Name = ../refined-set-2016/3m3e/3m3e_pocket.pdb
REMARK  117 active torsions:
REMARK  status: ('A' for Active; 'I' for Inactive)
REMARK    1  A    between atoms: _1  and  _3
REMARK    2  A    between atoms: _3  and  _4
REMARK    3  A    between atoms: _6  and  _8
REMARK    4  A    between atoms: _8  and  _9
REMARK    5  A    between atoms: _8  and  _11
REMARK    6  A    between atoms: _11  and  _12
REMARK    7  A    between atoms: _18  and  _19
REMARK    8  A    between atoms: _24  and  _26
REMARK    9  A    between atoms: _26  and  _27
REMARK   10  A    between atoms: _26  and  _29
REMARK   11  A    between atoms: _29  and  _30
REMARK   12  A    between atoms: _35  and  _37
REMARK   13  A    between atoms: _37  and  _38
REMARK   14  A    between atoms: _37  and  _40
REMARK   15  A    between atoms: _40  and  _41
REMARK   16  A    between atoms: _44  and  _46
REMARK   17  A    between atoms: _46  and  _47
REMARK   18  A    between atoms: _46  and  _49
REMARK   19  A    between atoms: _49  and  _50
REMARK   20  A    between atoms: _53  and  _55
REMARK   21  A    between atoms: _55  and  _56
REMARK   22  A    between atoms: _55  and  _58
REMARK   23  A    between atoms: _58  and  _59
REMARK   24  A    between atoms: _64  and  _66
REMARK   25  A    between atoms: _66  and  _67
REMARK   26  A    between atoms: _66  and  _69
REMARK   27  A    between atoms: _69  and  _70
REMARK   28  A    between atoms: _75  and  _76
REMARK   29  A    between atoms: _78  and  _80
REMARK   30  A    between atoms: _80  and  _81
REMARK   31  A    between atoms: _80  and  _83
REMARK   32  A    between atoms: _83  and  _84
REMARK   33  A    between atoms: _89  and  _91
REMARK   34  A    between atoms: _91  and  _92
REMARK   35  A    between atoms: _91  and  _94
REMARK   36  A    between atoms: _94  and  _95
REMARK   37  A    between atoms: _98  and  _100
REMARK   38  A    between atoms: _100  and  _101
REMARK   39  A    between atoms: _104  and  _106
REMARK   40  A    between atoms: _106  and  _107
REMARK   41  A    between atoms: _106  and  _109
REMARK   42  A    between atoms: _109  and  _110
REMARK   43  A    between atoms: _116  and  _118
REMARK   44  A    between atoms: _118  and  _119
REMARK   45  A    between atoms: _118  and  _121
REMARK   46  A    between atoms: _121  and  _122
REMARK   47  A    between atoms: _122  and  _123
REMARK   48  A    between atoms: _123  and  _124
REMARK   49  A    between atoms: _133  and  _135
REMARK   50  A    between atoms: _135  and  _136
REMARK   51  A    between atoms: _135  and  _138
REMARK   52  A    between atoms: _138  and  _139
REMARK   53  A    between atoms: _139  and  _140
REMARK   54  A    between atoms: _145  and  _147
REMARK   55  A    between atoms: _147  and  _148
REMARK   56  A    between atoms: _151  and  _153
REMARK   57  A    between atoms: _153  and  _154
REMARK   58  A    between atoms: _153  and  _156
REMARK   59  A    between atoms: _159  and  _161
REMARK   60  A    between atoms: _161  and  _162
REMARK   61  A    between atoms: _161  and  _164
REMARK   62  A    between atoms: _164  and  _165
REMARK   63  A    between atoms: _168  and  _170
REMARK   64  A    between atoms: _170  and  _171
REMARK   65  A    between atoms: _170  and  _173
REMARK   66  A    between atoms: _173  and  _174
REMARK   67  A    between atoms: _180  and  _182
REMARK   68  A    between atoms: _182  and  _183
REMARK   69  A    between atoms: _182  and  _185
REMARK   70  A    between atoms: _185  and  _186
REMARK   71  A    between atoms: _191  and  _193
REMARK   72  A    between atoms: _193  and  _194
REMARK   73  A    between atoms: _193  and  _196
REMARK   74  A    between atoms: _196  and  _197
REMARK   75  A    between atoms: _199  and  _201
REMARK   76  A    between atoms: _201  and  _202
REMARK   77  A    between atoms: _201  and  _204
REMARK   78  A    between atoms: _204  and  _205
REMARK   79  A    between atoms: _205  and  _206
REMARK   80  A    between atoms: _206  and  _207
REMARK   81  A    between atoms: _217  and  _218
REMARK   82  A    between atoms: _223  and  _225
REMARK   83  A    between atoms: _225  and  _226
REMARK   84  A    between atoms: _225  and  _228
REMARK   85  A    between atoms: _228  and  _229
REMARK   86  A    between atoms: _239  and  _241
REMARK   87  A    between atoms: _241  and  _242
REMARK   88  A    between atoms: _241  and  _244
REMARK   89  A    between atoms: _244  and  _245
REMARK   90  A    between atoms: _248  and  _250
REMARK   91  A    between atoms: _250  and  _251
REMARK   92  A    between atoms: _250  and  _253
REMARK   93  A    between atoms: _256  and  _258
REMARK   94  A    between atoms: _258  and  _259
REMARK   95  A    between atoms: _258  and  _261
REMARK   96  A    between atoms: _261  and  _262
REMARK   97  A    between atoms: _262  and  _263
REMARK   98  A    between atoms: _266  and  _268
REMARK   99  A    between atoms: _268  and  _269
REMARK  100  A    between atoms: _268  and  _271
REMARK  101  A    between atoms: _271  and  _272
REMARK  102  A    between atoms: _272  and  _273
REMARK  103  A    between atoms: _278  and  _280
REMARK  104  A    between atoms: _280  and  _281
REMARK  105  A    between atoms: _280  and  _283
REMARK  106  A    between atoms: _283  and  _284
REMARK  107  A    between atoms: _284  and  _285
REMARK  108  A    between atoms: _285  and  _286
REMARK  109  A    between atoms: _295  and  _297
REMARK  110  A    between atoms: _297  and  _298
REMARK  111  A    between atoms: _297  and  _300
REMARK  112  A    between atoms: _300  and  _301
REMARK  113  A    between atoms: _301  and  _302
REMARK  114  A    between atoms: _307  and  _309
REMARK  115  A    between atoms: _309  and  _310
REMARK  116  A    between atoms: _309  and  _312
REMARK  117  A    between atoms: _312  and  _313
REMARK                            x       y       z     vdW  Elec       q    Type
REMARK                         _______ _______ _______ _____ _____    ______ ____
ROOT
ATOM      1  CA  GLN A   1      40.339  -6.501  -2.616  0.00  0.00    +0.145 C 
ENDROOT
BRANCH   1   2
ATOM      2  C   GLN A   1      41.243  -6.768  -1.417  0.00  0.00    +0.238 C 
ATOM      3  N   ALA A   2      40.870  -6.244  -0.259  0.00  0.00    -0.298 N 
ATOM      4  H   ALA A   2      39.997  -5.682  -0.201  0.00  0.00    +0.150 HD
ATOM      5  O   GLN A   1      42.262  -7.448  -1.533  0.00  0.00    -0.274 OA
BRANCH   3   6
ATOM      6  CA  ALA A   2      41.680  -6.453   0.932  0.00  0.00    +0.137 C 
ATOM      7  CB  ALA A   2      41.563  -5.248   1.851  0.00  0.00    +0.030 C 
BRANCH   6   8
ATOM      8  C   ALA A   2      41.235  -7.722   1.653  0.00  0.00    +0.227 C 
ATOM      9  O   ALA A   2      41.865  -8.148   2.622  0.00  0.00    -0.286 OA
ENDBRANCH   6   8
ENDBRANCH   3   6
ENDBRANCH   1   2
BRANCH   1  10
ATOM     10  N   GLN A   1      38.930  -6.394  -2.251  0.00  0.00    -0.238 NA
ATOM     11  H   GLN A   1      38.420  -5.504  -2.421  0.00  0.00    +0.142 HD
ENDBRANCH   1  10
BRANCH   1  12
ATOM     12  CB  GLN A   1      40.800  -5.238  -3.367  0.00  0.00    +0.036 C 
BRANCH  12  13
ATOM     13  CG  GLN A   1      40.847  -3.928  -2.562  0.00  0.00    +0.087 C 
BRANCH  13  14
ATOM     14  CD  GLN A   1      39.519  -3.555  -1.904  0.00  0.00    +0.219 C 
ATOM     15  NE2 GLN A   1      39.599  -2.860  -0.770  0.00  0.00    -0.329 N 
ATOM     16 HE21 GLN A   1      38.731  -2.561  -0.281  0.00  0.00    +0.145 HD
ATOM     17 HE22 GLN A   1      40.529  -2.616  -0.374  0.00  0.00    +0.145 HD
ATOM     18  OE1 GLN A   1      38.443  -3.868  -2.413  0.00  0.00    -0.275 OA
ENDBRANCH  13  14
ENDBRANCH  12  13
ENDBRANCH   1  12
TORSDOF 7
REMARK  Name = ../refined-set-2016/3m3e/3m3e_pocket.pdb
REMARK  117 active torsions:
REMARK  status: ('A' for Active; 'I' for Inactive)
REMARK    1  A    between atoms: _1  and  _3
REMARK    2  A    between atoms: _3  and  _4
REMARK    3  A    between atoms: _6  and  _8
REMARK    4  A    between atoms: _8  and  _9
REMARK    5  A    between atoms: _8  and  _11
REMARK    6  A    between atoms: _11  and  _12
REMARK    7  A    between atoms: _18  and  _19
REMARK    8  A    between atoms: _24  and  _26
REMARK    9  A    between atoms: _26  and  _27
REMARK   10  A    between atoms: _26  and  _29
REMARK   11  A    between atoms: _29  and  _30
REMARK   12  A    between atoms: _35  and  _37
REMARK   13  A    between atoms: _37  and  _38
REMARK   14  A    between atoms: _37  and  _40
REMARK   15  A    between atoms: _40  and  _41
REMARK   16  A    between atoms: _44  and  _46
REMARK   17  A    between atoms: _46  and  _47
REMARK   18  A    between atoms: _46  and  _49
REMARK   19  A    between atoms: _49  and  _50
REMARK   20  A    between atoms: _53  and  _55
REMARK   21  A    between atoms: _55  and  _56
REMARK   22  A    between atoms: _55  and  _58
REMARK   23  A    between atoms: _58  and  _59
REMARK   24  A    between atoms: _64  and  _66
REMARK   25  A    between atoms: _66  and  _67
REMARK   26  A    between atoms: _66  and  _69
REMARK   27  A    between atoms: _69  and  _70
REMARK   28  A    between atoms: _75  and  _76
REMARK   29  A    between atoms: _78  and  _80
REMARK   30  A    between atoms: _80  and  _81
REMARK   31  A    between atoms: _80  and  _83
REMARK   32  A    between atoms: _83  and  _84
REMARK   33  A    between atoms: _89  and  _91
REMARK   34  A    between atoms: _91  and  _92
REMARK   35  A    between atoms: _91  and  _94
REMARK   36  A    between atoms: _94  and  _95
REMARK   37  A    between atoms: _98  and  _100
REMARK   38  A    between atoms: _100  and  _101
REMARK   39  A    between atoms: _104  and  _106
REMARK   40  A    between atoms: _106  and  _107
REMARK   41  A    between atoms: _106  and  _109
REMARK   42  A    between atoms: _109  and  _110
REMARK   43  A    between atoms: _116  and  _118
REMARK   44  A    between atoms: _118  and  _119
REMARK   45  A    between atoms: _118  and  _121
REMARK   46  A    between atoms: _121  and  _122
REMARK   47  A    between atoms: _122  and  _123
REMARK   48  A    between atoms: _123  and  _124
REMARK   49  A    between atoms: _133  and  _135
REMARK   50  A    between atoms: _135  and  _136
REMARK   51  A    between atoms: _135  and  _138
REMARK   52  A    between atoms: _138  and  _139
REMARK   53  A    between atoms: _139  and  _140
REMARK   54  A    between atoms: _145  and  _147
REMARK   55  A    between atoms: _147  and  _148
REMARK   56  A    between atoms: _151  and  _153
REMARK   57  A    between atoms: _153  and  _154
REMARK   58  A    between atoms: _153  and  _156
REMARK   59  A    between atoms: _159  and  _161
REMARK   60  A    between atoms: _161  and  _162
REMARK   61  A    between atoms: _161  and  _164
REMARK   62  A    between atoms: _164  and  _165
REMARK   63  A    between atoms: _168  and  _170
REMARK   64  A    between atoms: _170  and  _171
REMARK   65  A    between atoms: _170  and  _173
REMARK   66  A    between atoms: _173  and  _174
REMARK   67  A    between atoms: _180  and  _182
REMARK   68  A    between atoms: _182  and  _183
REMARK   69  A    between atoms: _182  and  _185
REMARK   70  A    between atoms: _185  and  _186
REMARK   71  A    between atoms: _191  and  _193
REMARK   72  A    between atoms: _193  and  _194
REMARK   73  A    between atoms: _193  and  _196
REMARK   74  A    between atoms: _196  and  _197
REMARK   75  A    between atoms: _199  and  _201
REMARK   76  A    between atoms: _201  and  _202
REMARK   77  A    between atoms: _201  and  _204
REMARK   78  A    between atoms: _204  and  _205
REMARK   79  A    between atoms: _205  and  _206
REMARK   80  A    between atoms: _206  and  _207
REMARK   81  A    between atoms: _217  and  _218
REMARK   82  A    between atoms: _223  and  _225
REMARK   83  A    between atoms: _225  and  _226
REMARK   84  A    between atoms: _225  and  _228
REMARK   85  A    between atoms: _228  and  _229
REMARK   86  A    between atoms: _239  and  _241
REMARK   87  A    between atoms: _241  and  _242
REMARK   88  A    between atoms: _241  and  _244
REMARK   89  A    between atoms: _244  and  _245
REMARK   90  A    between atoms: _248  and  _250
REMARK   91  A    between atoms: _250  and  _251
REMARK   92  A    between atoms: _250  and  _253
REMARK   93  A    between atoms: _256  and  _258
REMARK   94  A    between atoms: _258  and  _259
REMARK   95  A    between atoms: _258  and  _261
REMARK   96  A    between atoms: _261  and  _262
REMARK   97  A    between atoms: _262  and  _263
REMARK   98  A    between atoms: _266  and  _268
REMARK   99  A    between atoms: _268  and  _269
REMARK  100  A    between atoms: _268  and  _271
REMARK  101  A    between atoms: _271  and  _272
REMARK  102  A    between atoms: _272  and  _273
REMARK  103  A    between atoms: _278  and  _280
REMARK  104  A    between atoms: _280  and  _281
REMARK  105  A    between atoms: _280  and  _283
REMARK  106  A    between atoms: _283  and  _284
REMARK  107  A    between atoms: _284  and  _285
REMARK  108  A    between atoms: _285  and  _286
REMARK  109  A    between atoms: _295  and  _297
REMARK  110  A    between atoms: _297  and  _298
REMARK  111  A    between atoms: _297  and  _300
REMARK  112  A    between atoms: _300  and  _301
REMARK  113  A    between atoms: _301  and  _302
REMARK  114  A    between atoms: _307  and  _309
REMARK  115  A    between atoms: _309  and  _310
REMARK  116  A    between atoms: _309  and  _312
REMARK  117  A    between atoms: _312  and  _313
REMARK                            x       y       z     vdW  Elec       q    Type
REMARK                         _______ _______ _______ _____ _____    ______ ____
ROOT
ATOM      1  CA  VAL A   1      38.484  -8.167   5.085  0.00  0.00    +0.133 C 
ENDROOT
BRANCH   1   2
ATOM      2  CB  VAL A   1      39.708  -7.427   5.674  0.00  0.00    +0.023 C 
ATOM      3  CG2 VAL A   1      39.711  -7.525   7.188  0.00  0.00    +0.002 C 
ATOM      4  CG1 VAL A   1      39.720  -5.977   5.194  0.00  0.00    +0.002 C 
ENDBRANCH   1   2
BRANCH   1   5
ATOM      5  N   VAL A   1      38.675  -8.372   3.657  0.00  0.00    -0.239 NA
ATOM      6  H   VAL A   1      38.242  -7.720   2.972  0.00  0.00    +0.142 HD
ENDBRANCH   1   5
BRANCH   1   7
ATOM      7  C   VAL A   1      37.207  -7.382   5.389  0.00  0.00    +0.224 C 
ATOM      8  O   VAL A   1      36.683  -6.676   4.535  0.00  0.00    -0.287 OA
ENDBRANCH   1   7
TORSDOF 3
REMARK  Name = ../refined-set-2016/3m3e/3m3e_pocket.pdb
REMARK  117 active torsions:
REMARK  status: ('A' for Active; 'I' for Inactive)
REMARK    1  A    between atoms: _1  and  _3
REMARK    2  A    between atoms: _3  and  _4
REMARK    3  A    between atoms: _6  and  _8
REMARK    4  A    between atoms: _8  and  _9
REMARK    5  A    between atoms: _8  and  _11
REMARK    6  A    between atoms: _11  and  _12
REMARK    7  A    between atoms: _18  and  _19
REMARK    8  A    between atoms: _24  and  _26
REMARK    9  A    between atoms: _26  and  _27
REMARK   10  A    between atoms: _26  and  _29
REMARK   11  A    between atoms: _29  and  _30
REMARK   12  A    between atoms: _35  and  _37
REMARK   13  A    between atoms: _37  and  _38
REMARK   14  A    between atoms: _37  and  _40
REMARK   15  A    between atoms: _40  and  _41
REMARK   16  A    between atoms: _44  and  _46
REMARK   17  A    between atoms: _46  and  _47
REMARK   18  A    between atoms: _46  and  _49
REMARK   19  A    between atoms: _49  and  _50
REMARK   20  A    between atoms: _53  and  _55
REMARK   21  A    between atoms: _55  and  _56
REMARK   22  A    between atoms: _55  and  _58
REMARK   23  A    between atoms: _58  and  _59
REMARK   24  A    between atoms: _64  and  _66
REMARK   25  A    between atoms: _66  and  _67
REMARK   26  A    between atoms: _66  and  _69
REMARK   27  A    between atoms: _69  and  _70
REMARK   28  A    between atoms: _75  and  _76
REMARK   29  A    between atoms: _78  and  _80
REMARK   30  A    between atoms: _80  and  _81
REMARK   31  A    between atoms: _80  and  _83
REMARK   32  A    between atoms: _83  and  _84
REMARK   33  A    between atoms: _89  and  _91
REMARK   34  A    between atoms: _91  and  _92
REMARK   35  A    between atoms: _91  and  _94
REMARK   36  A    between atoms: _94  and  _95
REMARK   37  A    between atoms: _98  and  _100
REMARK   38  A    between atoms: _100  and  _101
REMARK   39  A    between atoms: _104  and  _106
REMARK   40  A    between atoms: _106  and  _107
REMARK   41  A    between atoms: _106  and  _109
REMARK   42  A    between atoms: _109  and  _110
REMARK   43  A    between atoms: _116  and  _118
REMARK   44  A    between atoms: _118  and  _119
REMARK   45  A    between atoms: _118  and  _121
REMARK   46  A    between atoms: _121  and  _122
REMARK   47  A    between atoms: _122  and  _123
REMARK   48  A    between atoms: _123  and  _124
REMARK   49  A    between atoms: _133  and  _135
REMARK   50  A    between atoms: _135  and  _136
REMARK   51  A    between atoms: _135  and  _138
REMARK   52  A    between atoms: _138  and  _139
REMARK   53  A    between atoms: _139  and  _140
REMARK   54  A    between atoms: _145  and  _147
REMARK   55  A    between atoms: _147  and  _148
REMARK   56  A    between atoms: _151  and  _153
REMARK   57  A    between atoms: _153  and  _154
REMARK   58  A    between atoms: _153  and  _156
REMARK   59  A    between atoms: _159  and  _161
REMARK   60  A    between atoms: _161  and  _162
REMARK   61  A    between atoms: _161  and  _164
REMARK   62  A    between atoms: _164  and  _165
REMARK   63  A    between atoms: _168  and  _170
REMARK   64  A    between atoms: _170  and  _171
REMARK   65  A    between atoms: _170  and  _173
REMARK   66  A    between atoms: _173  and  _174
REMARK   67  A    between atoms: _180  and  _182
REMARK   68  A    between atoms: _182  and  _183
REMARK   69  A    between atoms: _182  and  _185
REMARK   70  A    between atoms: _185  and  _186
REMARK   71  A    between atoms: _191  and  _193
REMARK   72  A    between atoms: _193  and  _194
REMARK   73  A    between atoms: _193  and  _196
REMARK   74  A    between atoms: _196  and  _197
REMARK   75  A    between atoms: _199  and  _201
REMARK   76  A    between atoms: _201  and  _202
REMARK   77  A    between atoms: _201  and  _204
REMARK   78  A    between atoms: _204  and  _205
REMARK   79  A    between atoms: _205  and  _206
REMARK   80  A    between atoms: _206  and  _207
REMARK   81  A    between atoms: _217  and  _218
REMARK   82  A    between atoms: _223  and  _225
REMARK   83  A    between atoms: _225  and  _226
REMARK   84  A    between atoms: _225  and  _228
REMARK   85  A    between atoms: _228  and  _229
REMARK   86  A    between atoms: _239  and  _241
REMARK   87  A    between atoms: _241  and  _242
REMARK   88  A    between atoms: _241  and  _244
REMARK   89  A    between atoms: _244  and  _245
REMARK   90  A    between atoms: _248  and  _250
REMARK   91  A    between atoms: _250  and  _251
REMARK   92  A    between atoms: _250  and  _253
REMARK   93  A    between atoms: _256  and  _258
REMARK   94  A    between atoms: _258  and  _259
REMARK   95  A    between atoms: _258  and  _261
REMARK   96  A    between atoms: _261  and  _262
REMARK   97  A    between atoms: _262  and  _263
REMARK   98  A    between atoms: _266  and  _268
REMARK   99  A    between atoms: _268  and  _269
REMARK  100  A    between atoms: _268  and  _271
REMARK  101  A    between atoms: _271  and  _272
REMARK  102  A    between atoms: _272  and  _273
REMARK  103  A    between atoms: _278  and  _280
REMARK  104  A    between atoms: _280  and  _281
REMARK  105  A    between atoms: _280  and  _283
REMARK  106  A    between atoms: _283  and  _284
REMARK  107  A    between atoms: _284  and  _285
REMARK  108  A    between atoms: _285  and  _286
REMARK  109  A    between atoms: _295  and  _297
REMARK  110  A    between atoms: _297  and  _298
REMARK  111  A    between atoms: _297  and  _300
REMARK  112  A    between atoms: _300  and  _301
REMARK  113  A    between atoms: _301  and  _302
REMARK  114  A    between atoms: _307  and  _309
REMARK  115  A    between atoms: _309  and  _310
REMARK  116  A    between atoms: _309  and  _312
REMARK  117  A    between atoms: _312  and  _313
REMARK                            x       y       z     vdW  Elec       q    Type
REMARK                         _______ _______ _______ _____ _____    ______ ____
ROOT
ATOM      1  CA  ASN A   3      34.807   0.381  14.041  0.00  0.00    +0.158 C 
ENDROOT
BRANCH   1   4
ATOM      2  C   PHE A   2      34.874  -1.926  13.316  0.00  0.00    +0.241 C 
ATOM      3  O   PHE A   2      35.935  -2.111  13.910  0.00  0.00    -0.273 OA
ATOM      4  N   ASN A   3      34.240  -0.758  13.329  0.00  0.00    -0.297 N 
ATOM      5  H   ASN A   3      33.334  -0.656  12.828  0.00  0.00    +0.150 HD
BRANCH   2   6
ATOM      6  CA  PHE A   2      34.233  -3.052  12.519  0.00  0.00    +0.153 C 
BRANCH   6   8
ATOM      7  C   ILE A   1      35.024  -3.486  10.228  0.00  0.00    +0.238 C 
ATOM      8  N   PHE A   2      35.236  -3.476  11.545  0.00  0.00    -0.297 N 
ATOM      9  H   PHE A   2      36.164  -3.786  11.897  0.00  0.00    +0.150 HD
ATOM     10  O   ILE A   1      33.944  -3.195   9.707  0.00  0.00    -0.274 OA
BRANCH   7  11
ATOM     11  CA  ILE A   1      36.211  -3.913   9.365  0.00  0.00    +0.145 C 
BRANCH  11  12
ATOM     12  CB  ILE A   1      36.945  -2.638   8.854  0.00  0.00    +0.025 C 
ATOM     13  CG2 ILE A   1      36.916  -1.536   9.908  0.00  0.00    +0.002 C 
BRANCH  12  14
ATOM     14  CG1 ILE A   1      38.400  -2.967   8.502  0.00  0.00    +0.002 C 
ATOM     15  CD1 ILE A   1      38.557  -3.831   7.276  0.00  0.00    +0.000 C 
ENDBRANCH  12  14
ENDBRANCH  11  12
BRANCH  11  16
ATOM     16  N   ILE A   1      35.796  -4.757   8.253  0.00  0.00    -0.238 NA
ATOM     17  H   ILE A   1      35.346  -4.318   7.425  0.00  0.00    +0.142 HD
ENDBRANCH  11  16
ENDBRANCH   7  11
ENDBRANCH   6   8
BRANCH   6  18
ATOM     18  CB  PHE A   2      33.846  -4.197  13.465  0.00  0.00    +0.055 C 
BRANCH  18  19
ATOM     19  CG  PHE A   2      33.261  -5.386  12.762  0.00  0.00    -0.020 A 
ATOM     20  CD2 PHE A   2      31.900  -5.435  12.470  0.00  0.00    -0.004 A 
ATOM     21  CE2 PHE A   2      31.360  -6.511  11.776  0.00  0.00    -0.000 A 
ATOM     22  CZ  PHE A   2      32.182  -7.553  11.366  0.00  0.00    -0.000 A 
ATOM     23  CE1 PHE A   2      33.546  -7.515  11.654  0.00  0.00    -0.000 A 
ATOM     24  CD1 PHE A   2      34.076  -6.438  12.346  0.00  0.00    -0.004 A 
ENDBRANCH  18  19
ENDBRANCH   6  18
ENDBRANCH   2   6
ENDBRANCH   1   4
BRANCH   1  25
ATOM     25  C   ASN A   3      33.730   1.316  14.579  0.00  0.00    +0.241 C 
ATOM     26  N   SER A   4      34.169   2.413  15.190  0.00  0.00    -0.295 N 
ATOM     27  H   SER A   4      35.195   2.559  15.274  0.00  0.00    +0.150 HD
ATOM     28  O   ASN A   3      32.535   1.046  14.443  0.00  0.00    -0.273 OA
BRANCH  26  29
ATOM     29  CA  SER A   4      33.273   3.420  15.748  0.00  0.00    +0.178 C 
BRANCH  29  30
ATOM     30  C   SER A   4      33.954   4.777  15.600  0.00  0.00    +0.243 C 
ATOM     31  N   ARG A   5      33.204   5.855  15.810  0.00  0.00    -0.298 N 
ATOM     32  H   ARG A   5      32.204   5.748  16.073  0.00  0.00    +0.150 HD
ATOM     33  O   SER A   4      35.154   4.847  15.316  0.00  0.00    -0.273 OA
BRANCH  31  34
ATOM     34  CA  ARG A   5      33.781   7.185  15.672  0.00  0.00    +0.137 C 
BRANCH  34  35
ATOM     35  C   ARG A   5      32.861   8.279  16.192  0.00  0.00    +0.227 C 
ATOM     36  O   ARG A   5      31.658   8.219  15.992  0.00  0.00    -0.286 OA
ENDBRANCH  34  35
BRANCH  34  37
ATOM     37  CB  ARG A   5      34.084   7.445  14.201  0.00  0.00    +0.031 C 
BRANCH  37  38
ATOM     38  CG  ARG A   5      34.672   8.799  13.903  0.00  0.00    +0.045 C 
BRANCH  38  39
ATOM     39  CD  ARG A   5      34.712   9.010  12.409  0.00  0.00    +0.174 C 
BRANCH  39  40
ATOM     40  NE  ARG A   5      35.553  10.142  12.054  0.00  0.00    -0.265 N 
ATOM     41  HE  ARG A   5      36.039  10.648  12.821  0.00  0.00    +0.259 HD
ATOM     42  CZ  ARG A   5      35.738  10.569  10.811  0.00  0.00    +0.342 C 
ATOM     43  NH2 ARG A   5      36.527  11.608  10.583  0.00  0.00    -0.292 N 
ATOM     44 HH21 ARG A   5      36.999  12.086  11.377  0.00  0.00    +0.255 HD
ATOM     45 HH22 ARG A   5      36.674  11.945   9.610  0.00  0.00    +0.255 HD
ATOM     46  NH1 ARG A   5      35.129   9.958   9.800  0.00  0.00    -0.292 N 
ATOM     47 HH11 ARG A   5      34.507   9.145   9.983  0.00  0.00    +0.255 HD
ATOM     48 HH12 ARG A   5      35.274  10.293   8.826  0.00  0.00    +0.255 HD
ENDBRANCH  39  40
ENDBRANCH  38  39
ENDBRANCH  37  38
ENDBRANCH  34  37
ENDBRANCH  31  34
ENDBRANCH  29  30
BRANCH  29  49
ATOM     49  CB  SER A   4      32.999   3.135  17.231  0.00  0.00    +0.166 C 
BRANCH  49  50
ATOM     50  OG  SER A   4      32.409   1.855  17.405  0.00  0.00    -0.380 OA
ATOM     51  H   SER A   4      33.022   1.160  17.056  0.00  0.00    +0.211 HD
ENDBRANCH  49  50
ENDBRANCH  29  49
ENDBRANCH  26  29
ENDBRANCH   1  25
BRANCH   1  52
ATOM     52  CB  ASN A   3      35.735   1.160  13.099  0.00  0.00    +0.114 C 
BRANCH  52  53
ATOM     53  CG  ASN A   3      36.919   1.766  13.821  0.00  0.00    +0.222 C 
ATOM     54  OD1 ASN A   3      36.988   1.730  15.044  0.00  0.00    -0.275 OA
ATOM     55  ND2 ASN A   3      37.862   2.325  13.062  0.00  0.00    -0.329 N 
ATOM     56 HD21 ASN A   3      38.699   2.754  13.505  0.00  0.00    +0.145 HD
ATOM     57 HD22 ASN A   3      37.760   2.332  12.027  0.00  0.00    +0.145 HD
ENDBRANCH  52  53
ENDBRANCH   1  52
TORSDOF 22
REMARK  Name = ../refined-set-2016/3m3e/3m3e_pocket.pdb
REMARK  117 active torsions:
REMARK  status: ('A' for Active; 'I' for Inactive)
REMARK    1  A    between atoms: _1  and  _3
REMARK    2  A    between atoms: _3  and  _4
REMARK    3  A    between atoms: _6  and  _8
REMARK    4  A    between atoms: _8  and  _9
REMARK    5  A    between atoms: _8  and  _11
REMARK    6  A    between atoms: _11  and  _12
REMARK    7  A    between atoms: _18  and  _19
REMARK    8  A    between atoms: _24  and  _26
REMARK    9  A    between atoms: _26  and  _27
REMARK   10  A    between atoms: _26  and  _29
REMARK   11  A    between atoms: _29  and  _30
REMARK   12  A    between atoms: _35  and  _37
REMARK   13  A    between atoms: _37  and  _38
REMARK   14  A    between atoms: _37  and  _40
REMARK   15  A    between atoms: _40  and  _41
REMARK   16  A    between atoms: _44  and  _46
REMARK   17  A    between atoms: _46  and  _47
REMARK   18  A    between atoms: _46  and  _49
REMARK   19  A    between atoms: _49  and  _50
REMARK   20  A    between atoms: _53  and  _55
REMARK   21  A    between atoms: _55  and  _56
REMARK   22  A    between atoms: _55  and  _58
REMARK   23  A    between atoms: _58  and  _59
REMARK   24  A    between atoms: _64  and  _66
REMARK   25  A    between atoms: _66  and  _67
REMARK   26  A    between atoms: _66  and  _69
REMARK   27  A    between atoms: _69  and  _70
REMARK   28  A    between atoms: _75  and  _76
REMARK   29  A    between atoms: _78  and  _80
REMARK   30  A    between atoms: _80  and  _81
REMARK   31  A    between atoms: _80  and  _83
REMARK   32  A    between atoms: _83  and  _84
REMARK   33  A    between atoms: _89  and  _91
REMARK   34  A    between atoms: _91  and  _92
REMARK   35  A    between atoms: _91  and  _94
REMARK   36  A    between atoms: _94  and  _95
REMARK   37  A    between atoms: _98  and  _100
REMARK   38  A    between atoms: _100  and  _101
REMARK   39  A    between atoms: _104  and  _106
REMARK   40  A    between atoms: _106  and  _107
REMARK   41  A    between atoms: _106  and  _109
REMARK   42  A    between atoms: _109  and  _110
REMARK   43  A    between atoms: _116  and  _118
REMARK   44  A    between atoms: _118  and  _119
REMARK   45  A    between atoms: _118  and  _121
REMARK   46  A    between atoms: _121  and  _122
REMARK   47  A    between atoms: _122  and  _123
REMARK   48  A    between atoms: _123  and  _124
REMARK   49  A    between atoms: _133  and  _135
REMARK   50  A    between atoms: _135  and  _136
REMARK   51  A    between atoms: _135  and  _138
REMARK   52  A    between atoms: _138  and  _139
REMARK   53  A    between atoms: _139  and  _140
REMARK   54  A    between atoms: _145  and  _147
REMARK   55  A    between atoms: _147  and  _148
REMARK   56  A    between atoms: _151  and  _153
REMARK   57  A    between atoms: _153  and  _154
REMARK   58  A    between atoms: _153  and  _156
REMARK   59  A    between atoms: _159  and  _161
REMARK   60  A    between atoms: _161  and  _162
REMARK   61  A    between atoms: _161  and  _164
REMARK   62  A    between atoms: _164  and  _165
REMARK   63  A    between atoms: _168  and  _170
REMARK   64  A    between atoms: _170  and  _171
REMARK   65  A    between atoms: _170  and  _173
REMARK   66  A    between atoms: _173  and  _174
REMARK   67  A    between atoms: _180  and  _182
REMARK   68  A    between atoms: _182  and  _183
REMARK   69  A    between atoms: _182  and  _185
REMARK   70  A    between atoms: _185  and  _186
REMARK   71  A    between atoms: _191  and  _193
REMARK   72  A    between atoms: _193  and  _194
REMARK   73  A    between atoms: _193  and  _196
REMARK   74  A    between atoms: _196  and  _197
REMARK   75  A    between atoms: _199  and  _201
REMARK   76  A    between atoms: _201  and  _202
REMARK   77  A    between atoms: _201  and  _204
REMARK   78  A    between atoms: _204  and  _205
REMARK   79  A    between atoms: _205  and  _206
REMARK   80  A    between atoms: _206  and  _207
REMARK   81  A    between atoms: _217  and  _218
REMARK   82  A    between atoms: _223  and  _225
REMARK   83  A    between atoms: _225  and  _226
REMARK   84  A    between atoms: _225  and  _228
REMARK   85  A    between atoms: _228  and  _229
REMARK   86  A    between atoms: _239  and  _241
REMARK   87  A    between atoms: _241  and  _242
REMARK   88  A    between atoms: _241  and  _244
REMARK   89  A    between atoms: _244  and  _245
REMARK   90  A    between atoms: _248  and  _250
REMARK   91  A    between atoms: _250  and  _251
REMARK   92  A    between atoms: _250  and  _253
REMARK   93  A    between atoms: _256  and  _258
REMARK   94  A    between atoms: _258  and  _259
REMARK   95  A    between atoms: _258  and  _261
REMARK   96  A    between atoms: _261  and  _262
REMARK   97  A    between atoms: _262  and  _263
REMARK   98  A    between atoms: _266  and  _268
REMARK   99  A    between atoms: _268  and  _269
REMARK  100  A    between atoms: _268  and  _271
REMARK  101  A    between atoms: _271  and  _272
REMARK  102  A    between atoms: _272  and  _273
REMARK  103  A    between atoms: _278  and  _280
REMARK  104  A    between atoms: _280  and  _281
REMARK  105  A    between atoms: _280  and  _283
REMARK  106  A    between atoms: _283  and  _284
REMARK  107  A    between atoms: _284  and  _285
REMARK  108  A    between atoms: _285  and  _286
REMARK  109  A    between atoms: _295  and  _297
REMARK  110  A    between atoms: _297  and  _298
REMARK  111  A    between atoms: _297  and  _300
REMARK  112  A    between atoms: _300  and  _301
REMARK  113  A    between atoms: _301  and  _302
REMARK  114  A    between atoms: _307  and  _309
REMARK  115  A    between atoms: _309  and  _310
REMARK  116  A    between atoms: _309  and  _312
REMARK  117  A    between atoms: _312  and  _313
REMARK                            x       y       z     vdW  Elec       q    Type
REMARK                         _______ _______ _______ _____ _____    ______ ____
ROOT
ATOM      1  C   VAL A   4      39.600  -0.023  16.268  0.00  0.00    +0.241 C 
ATOM      2  O   VAL A   4      38.506  -0.447  16.646  0.00  0.00    -0.273 OA
ATOM      3  N   GLU A   5      40.156  -0.378  15.116  0.00  0.00    -0.297 N 
ATOM      4  H   GLU A   5      41.083   0.017  14.857  0.00  0.00    +0.150 HD
ENDROOT
BRANCH   1   5
ATOM      5  CA  VAL A   4      40.400   0.946  17.131  0.00  0.00    +0.149 C 
BRANCH   5   7
ATOM      6  C   LEU A   3      39.589   3.117  16.335  0.00  0.00    +0.241 C 
ATOM      7  N   VAL A   4      39.739   2.240  17.327  0.00  0.00    -0.297 N 
ATOM      8  H   VAL A   4      39.375   2.481  18.271  0.00  0.00    +0.150 HD
ATOM      9  O   LEU A   3      39.996   2.905  15.187  0.00  0.00    -0.273 OA
BRANCH   6  10
ATOM     10  CA  LEU A   3      38.899   4.442  16.678  0.00  0.00    +0.149 C 
BRANCH  10  12
ATOM     11  C   TRP A   2      38.965   5.928  14.785  0.00  0.00    +0.241 C 
ATOM     12  N   LEU A   3      38.277   5.063  15.516  0.00  0.00    -0.297 N 
ATOM     13  H   LEU A   3      37.296   4.828  15.261  0.00  0.00    +0.150 HD
ATOM     14  O   TRP A   2      40.122   6.238  15.056  0.00  0.00    -0.273 OA
BRANCH  11  15
ATOM     15  CA  TRP A   2      38.257   6.559  13.591  0.00  0.00    +0.153 C 
BRANCH  15  18
ATOM     16  C   PRO A   1      38.505   8.760  14.549  0.00  0.00    +0.239 C 
ATOM     17  O   PRO A   1      37.928   8.414  15.580  0.00  0.00    -0.274 OA
ATOM     18  N   TRP A   2      38.696   7.939  13.520  0.00  0.00    -0.297 N 
ATOM     19  H   TRP A   2      39.163   8.289  12.659  0.00  0.00    +0.150 HD
BRANCH  16  24
ATOM     20  N   PRO A   1      38.362  11.094  15.335  0.00  0.00    -0.210 NA
ATOM     21  CD  PRO A   1      39.240  11.394  16.482  0.00  0.00    +0.089 C 
ATOM     22  CG  PRO A   1      40.374  10.400  16.299  0.00  0.00    +0.021 C 
ATOM     23  CB  PRO A   1      40.482  10.307  14.797  0.00  0.00    +0.028 C 
ATOM     24  CA  PRO A   1      39.024  10.187  14.396  0.00  0.00    +0.149 C 
ENDBRANCH  16  24
ENDBRANCH  15  18
BRANCH  15  25
ATOM     25  CB  TRP A   2      38.609   5.823  12.299  0.00  0.00    +0.057 C 
BRANCH  25  26
ATOM     26  CG  TRP A   2      37.698   6.177  11.167  0.00  0.00    -0.002 A 
ATOM     27  CD2 TRP A   2      36.330   5.776  11.018  0.00  0.00    +0.013 A 
ATOM     28  CE3 TRP A   2      35.462   4.981  11.780  0.00  0.00    +0.001 A 
ATOM     29  CZ3 TRP A   2      34.161   4.793  11.332  0.00  0.00    +0.000 A 
ATOM     30  CH2 TRP A   2      33.713   5.384  10.140  0.00  0.00    +0.001 A 
ATOM     31  CZ2 TRP A   2      34.540   6.169   9.372  0.00  0.00    +0.017 A 
ATOM     32  CE2 TRP A   2      35.850   6.359   9.823  0.00  0.00    +0.056 A 
ATOM     33  NE1 TRP A   2      36.878   7.080   9.275  0.00  0.00    -0.352 N 
ATOM     34  HE1 TRP A   2      36.830   7.625   8.390  0.00  0.00    +0.166 HD
ATOM     35  CD1 TRP A   2      37.986   6.966  10.087  0.00  0.00    +0.068 A 
ENDBRANCH  25  26
ENDBRANCH  15  25
ENDBRANCH  11  15
ENDBRANCH  10  12
BRANCH  10  36
ATOM     36  CB  LEU A   3      37.849   4.273  17.786  0.00  0.00    +0.029 C 
BRANCH  36  37
ATOM     37  CG  LEU A   3      37.197   5.622  18.150  0.00  0.00    +0.002 C 
ATOM     38  CD2 LEU A   3      36.074   5.441  19.164  0.00  0.00    +0.000 C 
ATOM     39  CD1 LEU A   3      38.272   6.567  18.689  0.00  0.00    +0.000 C 
ENDBRANCH  36  37
ENDBRANCH  10  36
ENDBRANCH   6  10
ENDBRANCH   5   7
BRANCH   5  40
ATOM     40  CB  VAL A   4      40.664   0.239  18.471  0.00  0.00    +0.027 C 
ATOM     41  CG2 VAL A   4      41.525   1.121  19.370  0.00  0.00    +0.002 C 
ATOM     42  CG1 VAL A   4      41.331  -1.101  18.213  0.00  0.00    +0.002 C 
ENDBRANCH   5  40
ENDBRANCH   1   5
BRANCH   3  43
ATOM     43  CA  GLU A   5      39.502  -1.305  14.208  0.00  0.00    +0.149 C 
BRANCH  43  44
ATOM     44  C   GLU A   5      39.589  -2.751  14.694  0.00  0.00    +0.241 C 
ATOM     45  O   GLU A   5      40.559  -3.139  15.343  0.00  0.00    -0.273 OA
ATOM     46  N   GLN A   6      38.559  -3.534  14.377  0.00  0.00    -0.297 N 
ATOM     47  H   GLN A   6      37.742  -3.108  13.895  0.00  0.00    +0.150 HD
BRANCH  46  48
ATOM     48  CA  GLN A   6      38.525  -4.965  14.676  0.00  0.00    +0.149 C 
BRANCH  48  49
ATOM     49  C   GLN A   6      38.394  -5.560  13.277  0.00  0.00    +0.241 C 
ATOM     50  N   ARG A   7      39.232  -6.527  12.929  0.00  0.00    -0.298 N 
ATOM     51  H   ARG A   7      39.941  -6.876  13.606  0.00  0.00    +0.150 HD
ATOM     52  O   GLN A   6      37.540  -5.134  12.506  0.00  0.00    -0.273 OA
BRANCH  50  53
ATOM     53  CA  ARG A   7      39.152  -7.096  11.593  0.00  0.00    +0.137 C 
BRANCH  53  54
ATOM     54  C   ARG A   7      38.795  -8.570  11.531  0.00  0.00    +0.227 C 
ATOM     55  O   ARG A   7      39.092  -9.338  12.447  0.00  0.00    -0.286 OA
ENDBRANCH  53  54
BRANCH  53  56
ATOM     56  CB  ARG A   7      40.468  -6.857  10.841  0.00  0.00    +0.031 C 
BRANCH  56  57
ATOM     57  CG  ARG A   7      40.757  -5.387  10.595  0.00  0.00    +0.045 C 
BRANCH  57  58
ATOM     58  CD  ARG A   7      41.881  -5.177   9.590  0.00  0.00    +0.174 C 
BRANCH  58  59
ATOM     59  NE  ARG A   7      41.982  -3.775   9.194  0.00  0.00    -0.265 N 
ATOM     60  HE  ARG A   7      41.506  -3.066   9.787  0.00  0.00    +0.259 HD
ATOM     61  CZ  ARG A   7      42.644  -3.348   8.124  0.00  0.00    +0.342 C 
ATOM     62  NH2 ARG A   7      42.683  -2.052   7.834  0.00  0.00    -0.292 N 
ATOM     63 HH21 ARG A   7      42.194  -1.367   8.445  0.00  0.00    +0.255 HD
ATOM     64 HH22 ARG A   7      43.202  -1.722   6.995  0.00  0.00    +0.255 HD
ATOM     65  NH1 ARG A   7      43.263  -4.216   7.336  0.00  0.00    -0.292 N 
ATOM     66 HH11 ARG A   7      43.231  -5.232   7.555  0.00  0.00    +0.255 HD
ATOM     67 HH12 ARG A   7      43.781  -3.881   6.499  0.00  0.00    +0.255 HD
ENDBRANCH  58  59
ENDBRANCH  57  58
ENDBRANCH  56  57
ENDBRANCH  53  56
ENDBRANCH  50  53
ENDBRANCH  48  49
BRANCH  48  68
ATOM     68  CB  GLN A   6      37.303  -5.351  15.515  0.00  0.00    +0.039 C 
BRANCH  68  69
ATOM     69  CG  GLN A   6      37.363  -4.938  16.979  0.00  0.00    +0.087 C 
BRANCH  69  70
ATOM     70  CD  GLN A   6      38.610  -5.440  17.682  0.00  0.00    +0.219 C 
ATOM     71  NE2 GLN A   6      39.262  -4.555  18.433  0.00  0.00    -0.329 N 
ATOM     72 HE21 GLN A   6      40.121  -4.840  18.945  0.00  0.00    +0.145 HD
ATOM     73 HE22 GLN A   6      38.912  -3.578  18.508  0.00  0.00    +0.145 HD
ATOM     74  OE1 GLN A   6      38.980  -6.609  17.558  0.00  0.00    -0.275 OA
ENDBRANCH  69  70
ENDBRANCH  68  69
ENDBRANCH  48  68
ENDBRANCH  46  48
ENDBRANCH  43  44
BRANCH  43  75
ATOM     75  CB  GLU A   5      40.157  -1.252  12.820  0.00  0.00    +0.041 C 
BRANCH  75  76
ATOM     76  CG  GLU A   5      39.785  -0.081  11.929  0.00  0.00    +0.116 C 
BRANCH  76  77
ATOM     77  CD  GLU A   5      40.370  -0.229  10.526  0.00  0.00    +0.365 C 
ATOM     78  OE2 GLU A   5      41.205  -1.138  10.308  0.00  0.00    -0.246 OA
ATOM     79  OE1 GLU A   5      39.994   0.559   9.640  0.00  0.00    -0.246 OA
ENDBRANCH  76  77
ENDBRANCH  75  76
ENDBRANCH  43  75
ENDBRANCH   3  43
TORSDOF 28
REMARK  Name = ../refined-set-2016/3m3e/3m3e_pocket.pdb
REMARK  117 active torsions:
REMARK  status: ('A' for Active; 'I' for Inactive)
REMARK    1  A    between atoms: _1  and  _3
REMARK    2  A    between atoms: _3  and  _4
REMARK    3  A    between atoms: _6  and  _8
REMARK    4  A    between atoms: _8  and  _9
REMARK    5  A    between atoms: _8  and  _11
REMARK    6  A    between atoms: _11  and  _12
REMARK    7  A    between atoms: _18  and  _19
REMARK    8  A    between atoms: _24  and  _26
REMARK    9  A    between atoms: _26  and  _27
REMARK   10  A    between atoms: _26  and  _29
REMARK   11  A    between atoms: _29  and  _30
REMARK   12  A    between atoms: _35  and  _37
REMARK   13  A    between atoms: _37  and  _38
REMARK   14  A    between atoms: _37  and  _40
REMARK   15  A    between atoms: _40  and  _41
REMARK   16  A    between atoms: _44  and  _46
REMARK   17  A    between atoms: _46  and  _47
REMARK   18  A    between atoms: _46  and  _49
REMARK   19  A    between atoms: _49  and  _50
REMARK   20  A    between atoms: _53  and  _55
REMARK   21  A    between atoms: _55  and  _56
REMARK   22  A    between atoms: _55  and  _58
REMARK   23  A    between atoms: _58  and  _59
REMARK   24  A    between atoms: _64  and  _66
REMARK   25  A    between atoms: _66  and  _67
REMARK   26  A    between atoms: _66  and  _69
REMARK   27  A    between atoms: _69  and  _70
REMARK   28  A    between atoms: _75  and  _76
REMARK   29  A    between atoms: _78  and  _80
REMARK   30  A    between atoms: _80  and  _81
REMARK   31  A    between atoms: _80  and  _83
REMARK   32  A    between atoms: _83  and  _84
REMARK   33  A    between atoms: _89  and  _91
REMARK   34  A    between atoms: _91  and  _92
REMARK   35  A    between atoms: _91  and  _94
REMARK   36  A    between atoms: _94  and  _95
REMARK   37  A    between atoms: _98  and  _100
REMARK   38  A    between atoms: _100  and  _101
REMARK   39  A    between atoms: _104  and  _106
REMARK   40  A    between atoms: _106  and  _107
REMARK   41  A    between atoms: _106  and  _109
REMARK   42  A    between atoms: _109  and  _110
REMARK   43  A    between atoms: _116  and  _118
REMARK   44  A    between atoms: _118  and  _119
REMARK   45  A    between atoms: _118  and  _121
REMARK   46  A    between atoms: _121  and  _122
REMARK   47  A    between atoms: _122  and  _123
REMARK   48  A    between atoms: _123  and  _124
REMARK   49  A    between atoms: _133  and  _135
REMARK   50  A    between atoms: _135  and  _136
REMARK   51  A    between atoms: _135  and  _138
REMARK   52  A    between atoms: _138  and  _139
REMARK   53  A    between atoms: _139  and  _140
REMARK   54  A    between atoms: _145  and  _147
REMARK   55  A    between atoms: _147  and  _148
REMARK   56  A    between atoms: _151  and  _153
REMARK   57  A    between atoms: _153  and  _154
REMARK   58  A    between atoms: _153  and  _156
REMARK   59  A    between atoms: _159  and  _161
REMARK   60  A    between atoms: _161  and  _162
REMARK   61  A    between atoms: _161  and  _164
REMARK   62  A    between atoms: _164  and  _165
REMARK   63  A    between atoms: _168  and  _170
REMARK   64  A    between atoms: _170  and  _171
REMARK   65  A    between atoms: _170  and  _173
REMARK   66  A    between atoms: _173  and  _174
REMARK   67  A    between atoms: _180  and  _182
REMARK   68  A    between atoms: _182  and  _183
REMARK   69  A    between atoms: _182  and  _185
REMARK   70  A    between atoms: _185  and  _186
REMARK   71  A    between atoms: _191  and  _193
REMARK   72  A    between atoms: _193  and  _194
REMARK   73  A    between atoms: _193  and  _196
REMARK   74  A    between atoms: _196  and  _197
REMARK   75  A    between atoms: _199  and  _201
REMARK   76  A    between atoms: _201  and  _202
REMARK   77  A    between atoms: _201  and  _204
REMARK   78  A    between atoms: _204  and  _205
REMARK   79  A    between atoms: _205  and  _206
REMARK   80  A    between atoms: _206  and  _207
REMARK   81  A    between atoms: _217  and  _218
REMARK   82  A    between atoms: _223  and  _225
REMARK   83  A    between atoms: _225  and  _226
REMARK   84  A    between atoms: _225  and  _228
REMARK   85  A    between atoms: _228  and  _229
REMARK   86  A    between atoms: _239  and  _241
REMARK   87  A    between atoms: _241  and  _242
REMARK   88  A    between atoms: _241  and  _244
REMARK   89  A    between atoms: _244  and  _245
REMARK   90  A    between atoms: _248  and  _250
REMARK   91  A    between atoms: _250  and  _251
REMARK   92  A    between atoms: _250  and  _253
REMARK   93  A    between atoms: _256  and  _258
REMARK   94  A    between atoms: _258  and  _259
REMARK   95  A    between atoms: _258  and  _261
REMARK   96  A    between atoms: _261  and  _262
REMARK   97  A    between atoms: _262  and  _263
REMARK   98  A    between atoms: _266  and  _268
REMARK   99  A    between atoms: _268  and  _269
REMARK  100  A    between atoms: _268  and  _271
REMARK  101  A    between atoms: _271  and  _272
REMARK  102  A    between atoms: _272  and  _273
REMARK  103  A    between atoms: _278  and  _280
REMARK  104  A    between atoms: _280  and  _281
REMARK  105  A    between atoms: _280  and  _283
REMARK  106  A    between atoms: _283  and  _284
REMARK  107  A    between atoms: _284  and  _285
REMARK  108  A    between atoms: _285  and  _286
REMARK  109  A    between atoms: _295  and  _297
REMARK  110  A    between atoms: _297  and  _298
REMARK  111  A    between atoms: _297  and  _300
REMARK  112  A    between atoms: _300  and  _301
REMARK  113  A    between atoms: _301  and  _302
REMARK  114  A    between atoms: _307  and  _309
REMARK  115  A    between atoms: _309  and  _310
REMARK  116  A    between atoms: _309  and  _312
REMARK  117  A    between atoms: _312  and  _313
REMARK                            x       y       z     vdW  Elec       q    Type
REMARK                         _______ _______ _______ _____ _____    ______ ____
ROOT
ATOM      1  CB  GLN A   1      34.853   2.026  20.612  0.00  0.00    +0.035 C 
ENDROOT
BRANCH   1   2
ATOM      2  CA  GLN A   1      33.917   1.814  21.801  0.00  0.00    +0.134 C 
BRANCH   2   3
ATOM      3  N   GLN A   1      32.919   0.794  21.504  0.00  0.00    -0.239 NA
ATOM      4  H   GLN A   1      32.438   0.804  20.582  0.00  0.00    +0.142 HD
ENDBRANCH   2   3
BRANCH   2   5
ATOM      5  C   GLN A   1      33.169   3.098  22.121  0.00  0.00    +0.224 C 
ATOM      6  O   GLN A   1      33.729   4.041  22.667  0.00  0.00    -0.287 OA
ENDBRANCH   2   5
ENDBRANCH   1   2
BRANCH   1   7
ATOM      7  CG  GLN A   1      35.574   0.764  20.179  0.00  0.00    +0.087 C 
BRANCH   7   8
ATOM      8  CD  GLN A   1      36.650   1.042  19.155  0.00  0.00    +0.219 C 
ATOM      9  OE1 GLN A   1      37.694   1.603  19.477  0.00  0.00    -0.275 OA
ATOM     10  NE2 GLN A   1      36.393   0.663  17.905  0.00  0.00    -0.329 N 
ATOM     11 HE21 GLN A   1      35.494   0.191  17.679  0.00  0.00    +0.145 HD
ATOM     12 HE22 GLN A   1      37.091   0.839  17.154  0.00  0.00    +0.145 HD
ENDBRANCH   7   8
ENDBRANCH   1   7
TORSDOF 5
REMARK  Name = ../refined-set-2016/3m3e/3m3e_pocket.pdb
REMARK  117 active torsions:
REMARK  status: ('A' for Active; 'I' for Inactive)
REMARK    1  A    between atoms: _1  and  _3
REMARK    2  A    between atoms: _3  and  _4
REMARK    3  A    between atoms: _6  and  _8
REMARK    4  A    between atoms: _8  and  _9
REMARK    5  A    between atoms: _8  and  _11
REMARK    6  A    between atoms: _11  and  _12
REMARK    7  A    between atoms: _18  and  _19
REMARK    8  A    between atoms: _24  and  _26
REMARK    9  A    between atoms: _26  and  _27
REMARK   10  A    between atoms: _26  and  _29
REMARK   11  A    between atoms: _29  and  _30
REMARK   12  A    between atoms: _35  and  _37
REMARK   13  A    between atoms: _37  and  _38
REMARK   14  A    between atoms: _37  and  _40
REMARK   15  A    between atoms: _40  and  _41
REMARK   16  A    between atoms: _44  and  _46
REMARK   17  A    between atoms: _46  and  _47
REMARK   18  A    between atoms: _46  and  _49
REMARK   19  A    between atoms: _49  and  _50
REMARK   20  A    between atoms: _53  and  _55
REMARK   21  A    between atoms: _55  and  _56
REMARK   22  A    between atoms: _55  and  _58
REMARK   23  A    between atoms: _58  and  _59
REMARK   24  A    between atoms: _64  and  _66
REMARK   25  A    between atoms: _66  and  _67
REMARK   26  A    between atoms: _66  and  _69
REMARK   27  A    between atoms: _69  and  _70
REMARK   28  A    between atoms: _75  and  _76
REMARK   29  A    between atoms: _78  and  _80
REMARK   30  A    between atoms: _80  and  _81
REMARK   31  A    between atoms: _80  and  _83
REMARK   32  A    between atoms: _83  and  _84
REMARK   33  A    between atoms: _89  and  _91
REMARK   34  A    between atoms: _91  and  _92
REMARK   35  A    between atoms: _91  and  _94
REMARK   36  A    between atoms: _94  and  _95
REMARK   37  A    between atoms: _98  and  _100
REMARK   38  A    between atoms: _100  and  _101
REMARK   39  A    between atoms: _104  and  _106
REMARK   40  A    between atoms: _106  and  _107
REMARK   41  A    between atoms: _106  and  _109
REMARK   42  A    between atoms: _109  and  _110
REMARK   43  A    between atoms: _116  and  _118
REMARK   44  A    between atoms: _118  and  _119
REMARK   45  A    between atoms: _118  and  _121
REMARK   46  A    between atoms: _121  and  _122
REMARK   47  A    between atoms: _122  and  _123
REMARK   48  A    between atoms: _123  and  _124
REMARK   49  A    between atoms: _133  and  _135
REMARK   50  A    between atoms: _135  and  _136
REMARK   51  A    between atoms: _135  and  _138
REMARK   52  A    between atoms: _138  and  _139
REMARK   53  A    between atoms: _139  and  _140
REMARK   54  A    between atoms: _145  and  _147
REMARK   55  A    between atoms: _147  and  _148
REMARK   56  A    between atoms: _151  and  _153
REMARK   57  A    between atoms: _153  and  _154
REMARK   58  A    between atoms: _153  and  _156
REMARK   59  A    between atoms: _159  and  _161
REMARK   60  A    between atoms: _161  and  _162
REMARK   61  A    between atoms: _161  and  _164
REMARK   62  A    between atoms: _164  and  _165
REMARK   63  A    between atoms: _168  and  _170
REMARK   64  A    between atoms: _170  and  _171
REMARK   65  A    between atoms: _170  and  _173
REMARK   66  A    between atoms: _173  and  _174
REMARK   67  A    between atoms: _180  and  _182
REMARK   68  A    between atoms: _182  and  _183
REMARK   69  A    between atoms: _182  and  _185
REMARK   70  A    between atoms: _185  and  _186
REMARK   71  A    between atoms: _191  and  _193
REMARK   72  A    between atoms: _193  and  _194
REMARK   73  A    between atoms: _193  and  _196
REMARK   74  A    between atoms: _196  and  _197
REMARK   75  A    between atoms: _199  and  _201
REMARK   76  A    between atoms: _201  and  _202
REMARK   77  A    between atoms: _201  and  _204
REMARK   78  A    between atoms: _204  and  _205
REMARK   79  A    between atoms: _205  and  _206
REMARK   80  A    between atoms: _206  and  _207
REMARK   81  A    between atoms: _217  and  _218
REMARK   82  A    between atoms: _223  and  _225
REMARK   83  A    between atoms: _225  and  _226
REMARK   84  A    between atoms: _225  and  _228
REMARK   85  A    between atoms: _228  and  _229
REMARK   86  A    between atoms: _239  and  _241
REMARK   87  A    between atoms: _241  and  _242
REMARK   88  A    between atoms: _241  and  _244
REMARK   89  A    between atoms: _244  and  _245
REMARK   90  A    between atoms: _248  and  _250
REMARK   91  A    between atoms: _250  and  _251
REMARK   92  A    between atoms: _250  and  _253
REMARK   93  A    between atoms: _256  and  _258
REMARK   94  A    between atoms: _258  and  _259
REMARK   95  A    between atoms: _258  and  _261
REMARK   96  A    between atoms: _261  and  _262
REMARK   97  A    between atoms: _262  and  _263
REMARK   98  A    between atoms: _266  and  _268
REMARK   99  A    between atoms: _268  and  _269
REMARK  100  A    between atoms: _268  and  _271
REMARK  101  A    between atoms: _271  and  _272
REMARK  102  A    between atoms: _272  and  _273
REMARK  103  A    between atoms: _278  and  _280
REMARK  104  A    between atoms: _280  and  _281
REMARK  105  A    between atoms: _280  and  _283
REMARK  106  A    between atoms: _283  and  _284
REMARK  107  A    between atoms: _284  and  _285
REMARK  108  A    between atoms: _285  and  _286
REMARK  109  A    between atoms: _295  and  _297
REMARK  110  A    between atoms: _297  and  _298
REMARK  111  A    between atoms: _297  and  _300
REMARK  112  A    between atoms: _300  and  _301
REMARK  113  A    between atoms: _301  and  _302
REMARK  114  A    between atoms: _307  and  _309
REMARK  115  A    between atoms: _309  and  _310
REMARK  116  A    between atoms: _309  and  _312
REMARK  117  A    between atoms: _312  and  _313
REMARK                            x       y       z     vdW  Elec       q    Type
REMARK                         _______ _______ _______ _____ _____    ______ ____
ROOT
ATOM      1  CB  ASN A   1      27.838   4.308   2.624  0.00  0.00    +0.110 C 
ENDROOT
BRANCH   1   2
ATOM      2  CG  ASN A   1      28.304   5.482   1.796  0.00  0.00    +0.221 C 
ATOM      3  ND2 ASN A   1      29.250   6.245   2.327  0.00  0.00    -0.329 N 
ATOM      4 HD21 ASN A   1      29.636   6.017   3.266  0.00  0.00    +0.145 HD
ATOM      5 HD22 ASN A   1      29.606   7.071   1.805  0.00  0.00    +0.145 HD
ATOM      6  OD1 ASN A   1      27.814   5.704   0.694  0.00  0.00    -0.275 OA
ENDBRANCH   1   2
BRANCH   1   7
ATOM      7  CA  ASN A   1      26.952   3.351   1.831  0.00  0.00    +0.142 C 
BRANCH   7   8
ATOM      8  N   ASN A   1      26.202   2.527   2.749  0.00  0.00    -0.239 NA
ATOM      9  H   ASN A   1      26.690   1.902   3.422  0.00  0.00    +0.142 HD
ENDBRANCH   7   8
BRANCH   7  10
ATOM     10  C   ASN A   1      27.765   2.554   0.833  0.00  0.00    +0.225 C 
ATOM     11  O   ASN A   1      28.618   1.742   1.199  0.00  0.00    -0.287 OA
ENDBRANCH   7  10
ENDBRANCH   1   7
TORSDOF 4
REMARK  Name = ../refined-set-2016/3m3e/3m3e_pocket.pdb
REMARK  117 active torsions:
REMARK  status: ('A' for Active; 'I' for Inactive)
REMARK    1  A    between atoms: _1  and  _3
REMARK    2  A    between atoms: _3  and  _4
REMARK    3  A    between atoms: _6  and  _8
REMARK    4  A    between atoms: _8  and  _9
REMARK    5  A    between atoms: _8  and  _11
REMARK    6  A    between atoms: _11  and  _12
REMARK    7  A    between atoms: _18  and  _19
REMARK    8  A    between atoms: _24  and  _26
REMARK    9  A    between atoms: _26  and  _27
REMARK   10  A    between atoms: _26  and  _29
REMARK   11  A    between atoms: _29  and  _30
REMARK   12  A    between atoms: _35  and  _37
REMARK   13  A    between atoms: _37  and  _38
REMARK   14  A    between atoms: _37  and  _40
REMARK   15  A    between atoms: _40  and  _41
REMARK   16  A    between atoms: _44  and  _46
REMARK   17  A    between atoms: _46  and  _47
REMARK   18  A    between atoms: _46  and  _49
REMARK   19  A    between atoms: _49  and  _50
REMARK   20  A    between atoms: _53  and  _55
REMARK   21  A    between atoms: _55  and  _56
REMARK   22  A    between atoms: _55  and  _58
REMARK   23  A    between atoms: _58  and  _59
REMARK   24  A    between atoms: _64  and  _66
REMARK   25  A    between atoms: _66  and  _67
REMARK   26  A    between atoms: _66  and  _69
REMARK   27  A    between atoms: _69  and  _70
REMARK   28  A    between atoms: _75  and  _76
REMARK   29  A    between atoms: _78  and  _80
REMARK   30  A    between atoms: _80  and  _81
REMARK   31  A    between atoms: _80  and  _83
REMARK   32  A    between atoms: _83  and  _84
REMARK   33  A    between atoms: _89  and  _91
REMARK   34  A    between atoms: _91  and  _92
REMARK   35  A    between atoms: _91  and  _94
REMARK   36  A    between atoms: _94  and  _95
REMARK   37  A    between atoms: _98  and  _100
REMARK   38  A    between atoms: _100  and  _101
REMARK   39  A    between atoms: _104  and  _106
REMARK   40  A    between atoms: _106  and  _107
REMARK   41  A    between atoms: _106  and  _109
REMARK   42  A    between atoms: _109  and  _110
REMARK   43  A    between atoms: _116  and  _118
REMARK   44  A    between atoms: _118  and  _119
REMARK   45  A    between atoms: _118  and  _121
REMARK   46  A    between atoms: _121  and  _122
REMARK   47  A    between atoms: _122  and  _123
REMARK   48  A    between atoms: _123  and  _124
REMARK   49  A    between atoms: _133  and  _135
REMARK   50  A    between atoms: _135  and  _136
REMARK   51  A    between atoms: _135  and  _138
REMARK   52  A    between atoms: _138  and  _139
REMARK   53  A    between atoms: _139  and  _140
REMARK   54  A    between atoms: _145  and  _147
REMARK   55  A    between atoms: _147  and  _148
REMARK   56  A    between atoms: _151  and  _153
REMARK   57  A    between atoms: _153  and  _154
REMARK   58  A    between atoms: _153  and  _156
REMARK   59  A    between atoms: _159  and  _161
REMARK   60  A    between atoms: _161  and  _162
REMARK   61  A    between atoms: _161  and  _164
REMARK   62  A    between atoms: _164  and  _165
REMARK   63  A    between atoms: _168  and  _170
REMARK   64  A    between atoms: _170  and  _171
REMARK   65  A    between atoms: _170  and  _173
REMARK   66  A    between atoms: _173  and  _174
REMARK   67  A    between atoms: _180  and  _182
REMARK   68  A    between atoms: _182  and  _183
REMARK   69  A    between atoms: _182  and  _185
REMARK   70  A    between atoms: _185  and  _186
REMARK   71  A    between atoms: _191  and  _193
REMARK   72  A    between atoms: _193  and  _194
REMARK   73  A    between atoms: _193  and  _196
REMARK   74  A    between atoms: _196  and  _197
REMARK   75  A    between atoms: _199  and  _201
REMARK   76  A    between atoms: _201  and  _202
REMARK   77  A    between atoms: _201  and  _204
REMARK   78  A    between atoms: _204  and  _205
REMARK   79  A    between atoms: _205  and  _206
REMARK   80  A    between atoms: _206  and  _207
REMARK   81  A    between atoms: _217  and  _218
REMARK   82  A    between atoms: _223  and  _225
REMARK   83  A    between atoms: _225  and  _226
REMARK   84  A    between atoms: _225  and  _228
REMARK   85  A    between atoms: _228  and  _229
REMARK   86  A    between atoms: _239  and  _241
REMARK   87  A    between atoms: _241  and  _242
REMARK   88  A    between atoms: _241  and  _244
REMARK   89  A    between atoms: _244  and  _245
REMARK   90  A    between atoms: _248  and  _250
REMARK   91  A    between atoms: _250  and  _251
REMARK   92  A    between atoms: _250  and  _253
REMARK   93  A    between atoms: _256  and  _258
REMARK   94  A    between atoms: _258  and  _259
REMARK   95  A    between atoms: _258  and  _261
REMARK   96  A    between atoms: _261  and  _262
REMARK   97  A    between atoms: _262  and  _263
REMARK   98  A    between atoms: _266  and  _268
REMARK   99  A    between atoms: _268  and  _269
REMARK  100  A    between atoms: _268  and  _271
REMARK  101  A    between atoms: _271  and  _272
REMARK  102  A    between atoms: _272  and  _273
REMARK  103  A    between atoms: _278  and  _280
REMARK  104  A    between atoms: _280  and  _281
REMARK  105  A    between atoms: _280  and  _283
REMARK  106  A    between atoms: _283  and  _284
REMARK  107  A    between atoms: _284  and  _285
REMARK  108  A    between atoms: _285  and  _286
REMARK  109  A    between atoms: _295  and  _297
REMARK  110  A    between atoms: _297  and  _298
REMARK  111  A    between atoms: _297  and  _300
REMARK  112  A    between atoms: _300  and  _301
REMARK  113  A    between atoms: _301  and  _302
REMARK  114  A    between atoms: _307  and  _309
REMARK  115  A    between atoms: _309  and  _310
REMARK  116  A    between atoms: _309  and  _312
REMARK  117  A    between atoms: _312  and  _313
REMARK                            x       y       z     vdW  Elec       q    Type
REMARK                         _______ _______ _______ _____ _____    ______ ____
ROOT
ATOM      1  O   HOH     1      30.704   4.889   5.195  0.00  0.00    +0.000 OA
ENDROOT
TORSDOF 0
REMARK  Name = ../refined-set-2016/3m3e/3m3e_pocket.pdb
REMARK  117 active torsions:
REMARK  status: ('A' for Active; 'I' for Inactive)
REMARK    1  A    between atoms: _1  and  _3
REMARK    2  A    between atoms: _3  and  _4
REMARK    3  A    between atoms: _6  and  _8
REMARK    4  A    between atoms: _8  and  _9
REMARK    5  A    between atoms: _8  and  _11
REMARK    6  A    between atoms: _11  and  _12
REMARK    7  A    between atoms: _18  and  _19
REMARK    8  A    between atoms: _24  and  _26
REMARK    9  A    between atoms: _26  and  _27
REMARK   10  A    between atoms: _26  and  _29
REMARK   11  A    between atoms: _29  and  _30
REMARK   12  A    between atoms: _35  and  _37
REMARK   13  A    between atoms: _37  and  _38
REMARK   14  A    between atoms: _37  and  _40
REMARK   15  A    between atoms: _40  and  _41
REMARK   16  A    between atoms: _44  and  _46
REMARK   17  A    between atoms: _46  and  _47
REMARK   18  A    between atoms: _46  and  _49
REMARK   19  A    between atoms: _49  and  _50
REMARK   20  A    between atoms: _53  and  _55
REMARK   21  A    between atoms: _55  and  _56
REMARK   22  A    between atoms: _55  and  _58
REMARK   23  A    between atoms: _58  and  _59
REMARK   24  A    between atoms: _64  and  _66
REMARK   25  A    between atoms: _66  and  _67
REMARK   26  A    between atoms: _66  and  _69
REMARK   27  A    between atoms: _69  and  _70
REMARK   28  A    between atoms: _75  and  _76
REMARK   29  A    between atoms: _78  and  _80
REMARK   30  A    between atoms: _80  and  _81
REMARK   31  A    between atoms: _80  and  _83
REMARK   32  A    between atoms: _83  and  _84
REMARK   33  A    between atoms: _89  and  _91
REMARK   34  A    between atoms: _91  and  _92
REMARK   35  A    between atoms: _91  and  _94
REMARK   36  A    between atoms: _94  and  _95
REMARK   37  A    between atoms: _98  and  _100
REMARK   38  A    between atoms: _100  and  _101
REMARK   39  A    between atoms: _104  and  _106
REMARK   40  A    between atoms: _106  and  _107
REMARK   41  A    between atoms: _106  and  _109
REMARK   42  A    between atoms: _109  and  _110
REMARK   43  A    between atoms: _116  and  _118
REMARK   44  A    between atoms: _118  and  _119
REMARK   45  A    between atoms: _118  and  _121
REMARK   46  A    between atoms: _121  and  _122
REMARK   47  A    between atoms: _122  and  _123
REMARK   48  A    between atoms: _123  and  _124
REMARK   49  A    between atoms: _133  and  _135
REMARK   50  A    between atoms: _135  and  _136
REMARK   51  A    between atoms: _135  and  _138
REMARK   52  A    between atoms: _138  and  _139
REMARK   53  A    between atoms: _139  and  _140
REMARK   54  A    between atoms: _145  and  _147
REMARK   55  A    between atoms: _147  and  _148
REMARK   56  A    between atoms: _151  and  _153
REMARK   57  A    between atoms: _153  and  _154
REMARK   58  A    between atoms: _153  and  _156
REMARK   59  A    between atoms: _159  and  _161
REMARK   60  A    between atoms: _161  and  _162
REMARK   61  A    between atoms: _161  and  _164
REMARK   62  A    between atoms: _164  and  _165
REMARK   63  A    between atoms: _168  and  _170
REMARK   64  A    between atoms: _170  and  _171
REMARK   65  A    between atoms: _170  and  _173
REMARK   66  A    between atoms: _173  and  _174
REMARK   67  A    between atoms: _180  and  _182
REMARK   68  A    between atoms: _182  and  _183
REMARK   69  A    between atoms: _182  and  _185
REMARK   70  A    between atoms: _185  and  _186
REMARK   71  A    between atoms: _191  and  _193
REMARK   72  A    between atoms: _193  and  _194
REMARK   73  A    between atoms: _193  and  _196
REMARK   74  A    between atoms: _196  and  _197
REMARK   75  A    between atoms: _199  and  _201
REMARK   76  A    between atoms: _201  and  _202
REMARK   77  A    between atoms: _201  and  _204
REMARK   78  A    between atoms: _204  and  _205
REMARK   79  A    between atoms: _205  and  _206
REMARK   80  A    between atoms: _206  and  _207
REMARK   81  A    between atoms: _217  and  _218
REMARK   82  A    between atoms: _223  and  _225
REMARK   83  A    between atoms: _225  and  _226
REMARK   84  A    between atoms: _225  and  _228
REMARK   85  A    between atoms: _228  and  _229
REMARK   86  A    between atoms: _239  and  _241
REMARK   87  A    between atoms: _241  and  _242
REMARK   88  A    between atoms: _241  and  _244
REMARK   89  A    between atoms: _244  and  _245
REMARK   90  A    between atoms: _248  and  _250
REMARK   91  A    between atoms: _250  and  _251
REMARK   92  A    between atoms: _250  and  _253
REMARK   93  A    between atoms: _256  and  _258
REMARK   94  A    between atoms: _258  and  _259
REMARK   95  A    between atoms: _258  and  _261
REMARK   96  A    between atoms: _261  and  _262
REMARK   97  A    between atoms: _262  and  _263
REMARK   98  A    between atoms: _266  and  _268
REMARK   99  A    between atoms: _268  and  _269
REMARK  100  A    between atoms: _268  and  _271
REMARK  101  A    between atoms: _271  and  _272
REMARK  102  A    between atoms: _272  and  _273
REMARK  103  A    between atoms: _278  and  _280
REMARK  104  A    between atoms: _280  and  _281
REMARK  105  A    between atoms: _280  and  _283
REMARK  106  A    between atoms: _283  and  _284
REMARK  107  A    between atoms: _284  and  _285
REMARK  108  A    between atoms: _285  and  _286
REMARK  109  A    between atoms: _295  and  _297
REMARK  110  A    between atoms: _297  and  _298
REMARK  111  A    between atoms: _297  and  _300
REMARK  112  A    between atoms: _300  and  _301
REMARK  113  A    between atoms: _301  and  _302
REMARK  114  A    between atoms: _307  and  _309
REMARK  115  A    between atoms: _309  and  _310
REMARK  116  A    between atoms: _309  and  _312
REMARK  117  A    between atoms: _312  and  _313
REMARK                            x       y       z     vdW  Elec       q    Type
REMARK                         _______ _______ _______ _____ _____    ______ ____
ROOT
ATOM      1  O   HOH     1      42.751   0.983  14.095  0.00  0.00    +0.000 OA
ENDROOT
TORSDOF 0
REMARK  Name = ../refined-set-2016/3m3e/3m3e_pocket.pdb
REMARK  117 active torsions:
REMARK  status: ('A' for Active; 'I' for Inactive)
REMARK    1  A    between atoms: _1  and  _3
REMARK    2  A    between atoms: _3  and  _4
REMARK    3  A    between atoms: _6  and  _8
REMARK    4  A    between atoms: _8  and  _9
REMARK    5  A    between atoms: _8  and  _11
REMARK    6  A    between atoms: _11  and  _12
REMARK    7  A    between atoms: _18  and  _19
REMARK    8  A    between atoms: _24  and  _26
REMARK    9  A    between atoms: _26  and  _27
REMARK   10  A    between atoms: _26  and  _29
REMARK   11  A    between atoms: _29  and  _30
REMARK   12  A    between atoms: _35  and  _37
REMARK   13  A    between atoms: _37  and  _38
REMARK   14  A    between atoms: _37  and  _40
REMARK   15  A    between atoms: _40  and  _41
REMARK   16  A    between atoms: _44  and  _46
REMARK   17  A    between atoms: _46  and  _47
REMARK   18  A    between atoms: _46  and  _49
REMARK   19  A    between atoms: _49  and  _50
REMARK   20  A    between atoms: _53  and  _55
REMARK   21  A    between atoms: _55  and  _56
REMARK   22  A    between atoms: _55  and  _58
REMARK   23  A    between atoms: _58  and  _59
REMARK   24  A    between atoms: _64  and  _66
REMARK   25  A    between atoms: _66  and  _67
REMARK   26  A    between atoms: _66  and  _69
REMARK   27  A    between atoms: _69  and  _70
REMARK   28  A    between atoms: _75  and  _76
REMARK   29  A    between atoms: _78  and  _80
REMARK   30  A    between atoms: _80  and  _81
REMARK   31  A    between atoms: _80  and  _83
REMARK   32  A    between atoms: _83  and  _84
REMARK   33  A    between atoms: _89  and  _91
REMARK   34  A    between atoms: _91  and  _92
REMARK   35  A    between atoms: _91  and  _94
REMARK   36  A    between atoms: _94  and  _95
REMARK   37  A    between atoms: _98  and  _100
REMARK   38  A    between atoms: _100  and  _101
REMARK   39  A    between atoms: _104  and  _106
REMARK   40  A    between atoms: _106  and  _107
REMARK   41  A    between atoms: _106  and  _109
REMARK   42  A    between atoms: _109  and  _110
REMARK   43  A    between atoms: _116  and  _118
REMARK   44  A    between atoms: _118  and  _119
REMARK   45  A    between atoms: _118  and  _121
REMARK   46  A    between atoms: _121  and  _122
REMARK   47  A    between atoms: _122  and  _123
REMARK   48  A    between atoms: _123  and  _124
REMARK   49  A    between atoms: _133  and  _135
REMARK   50  A    between atoms: _135  and  _136
REMARK   51  A    between atoms: _135  and  _138
REMARK   52  A    between atoms: _138  and  _139
REMARK   53  A    between atoms: _139  and  _140
REMARK   54  A    between atoms: _145  and  _147
REMARK   55  A    between atoms: _147  and  _148
REMARK   56  A    between atoms: _151  and  _153
REMARK   57  A    between atoms: _153  and  _154
REMARK   58  A    between atoms: _153  and  _156
REMARK   59  A    between atoms: _159  and  _161
REMARK   60  A    between atoms: _161  and  _162
REMARK   61  A    between atoms: _161  and  _164
REMARK   62  A    between atoms: _164  and  _165
REMARK   63  A    between atoms: _168  and  _170
REMARK   64  A    between atoms: _170  and  _171
REMARK   65  A    between atoms: _170  and  _173
REMARK   66  A    between atoms: _173  and  _174
REMARK   67  A    between atoms: _180  and  _182
REMARK   68  A    between atoms: _182  and  _183
REMARK   69  A    between atoms: _182  and  _185
REMARK   70  A    between atoms: _185  and  _186
REMARK   71  A    between atoms: _191  and  _193
REMARK   72  A    between atoms: _193  and  _194
REMARK   73  A    between atoms: _193  and  _196
REMARK   74  A    between atoms: _196  and  _197
REMARK   75  A    between atoms: _199  and  _201
REMARK   76  A    between atoms: _201  and  _202
REMARK   77  A    between atoms: _201  and  _204
REMARK   78  A    between atoms: _204  and  _205
REMARK   79  A    between atoms: _205  and  _206
REMARK   80  A    between atoms: _206  and  _207
REMARK   81  A    between atoms: _217  and  _218
REMARK   82  A    between atoms: _223  and  _225
REMARK   83  A    between atoms: _225  and  _226
REMARK   84  A    between atoms: _225  and  _228
REMARK   85  A    between atoms: _228  and  _229
REMARK   86  A    between atoms: _239  and  _241
REMARK   87  A    between atoms: _241  and  _242
REMARK   88  A    between atoms: _241  and  _244
REMARK   89  A    between atoms: _244  and  _245
REMARK   90  A    between atoms: _248  and  _250
REMARK   91  A    between atoms: _250  and  _251
REMARK   92  A    between atoms: _250  and  _253
REMARK   93  A    between atoms: _256  and  _258
REMARK   94  A    between atoms: _258  and  _259
REMARK   95  A    between atoms: _258  and  _261
REMARK   96  A    between atoms: _261  and  _262
REMARK   97  A    between atoms: _262  and  _263
REMARK   98  A    between atoms: _266  and  _268
REMARK   99  A    between atoms: _268  and  _269
REMARK  100  A    between atoms: _268  and  _271
REMARK  101  A    between atoms: _271  and  _272
REMARK  102  A    between atoms: _272  and  _273
REMARK  103  A    between atoms: _278  and  _280
REMARK  104  A    between atoms: _280  and  _281
REMARK  105  A    between atoms: _280  and  _283
REMARK  106  A    between atoms: _283  and  _284
REMARK  107  A    between atoms: _284  and  _285
REMARK  108  A    between atoms: _285  and  _286
REMARK  109  A    between atoms: _295  and  _297
REMARK  110  A    between atoms: _297  and  _298
REMARK  111  A    between atoms: _297  and  _300
REMARK  112  A    between atoms: _300  and  _301
REMARK  113  A    between atoms: _301  and  _302
REMARK  114  A    between atoms: _307  and  _309
REMARK  115  A    between atoms: _309  and  _310
REMARK  116  A    between atoms: _309  and  _312
REMARK  117  A    between atoms: _312  and  _313
REMARK                            x       y       z     vdW  Elec       q    Type
REMARK                         _______ _______ _______ _____ _____    ______ ____
ROOT
ATOM      1  O   HOH     1      29.257   7.134   5.896  0.00  0.00    +0.000 OA
ENDROOT
TORSDOF 0
REMARK  Name = ../refined-set-2016/3m3e/3m3e_pocket.pdb
REMARK  117 active torsions:
REMARK  status: ('A' for Active; 'I' for Inactive)
REMARK    1  A    between atoms: _1  and  _3
REMARK    2  A    between atoms: _3  and  _4
REMARK    3  A    between atoms: _6  and  _8
REMARK    4  A    between atoms: _8  and  _9
REMARK    5  A    between atoms: _8  and  _11
REMARK    6  A    between atoms: _11  and  _12
REMARK    7  A    between atoms: _18  and  _19
REMARK    8  A    between atoms: _24  and  _26
REMARK    9  A    between atoms: _26  and  _27
REMARK   10  A    between atoms: _26  and  _29
REMARK   11  A    between atoms: _29  and  _30
REMARK   12  A    between atoms: _35  and  _37
REMARK   13  A    between atoms: _37  and  _38
REMARK   14  A    between atoms: _37  and  _40
REMARK   15  A    between atoms: _40  and  _41
REMARK   16  A    between atoms: _44  and  _46
REMARK   17  A    between atoms: _46  and  _47
REMARK   18  A    between atoms: _46  and  _49
REMARK   19  A    between atoms: _49  and  _50
REMARK   20  A    between atoms: _53  and  _55
REMARK   21  A    between atoms: _55  and  _56
REMARK   22  A    between atoms: _55  and  _58
REMARK   23  A    between atoms: _58  and  _59
REMARK   24  A    between atoms: _64  and  _66
REMARK   25  A    between atoms: _66  and  _67
REMARK   26  A    between atoms: _66  and  _69
REMARK   27  A    between atoms: _69  and  _70
REMARK   28  A    between atoms: _75  and  _76
REMARK   29  A    between atoms: _78  and  _80
REMARK   30  A    between atoms: _80  and  _81
REMARK   31  A    between atoms: _80  and  _83
REMARK   32  A    between atoms: _83  and  _84
REMARK   33  A    between atoms: _89  and  _91
REMARK   34  A    between atoms: _91  and  _92
REMARK   35  A    between atoms: _91  and  _94
REMARK   36  A    between atoms: _94  and  _95
REMARK   37  A    between atoms: _98  and  _100
REMARK   38  A    between atoms: _100  and  _101
REMARK   39  A    between atoms: _104  and  _106
REMARK   40  A    between atoms: _106  and  _107
REMARK   41  A    between atoms: _106  and  _109
REMARK   42  A    between atoms: _109  and  _110
REMARK   43  A    between atoms: _116  and  _118
REMARK   44  A    between atoms: _118  and  _119
REMARK   45  A    between atoms: _118  and  _121
REMARK   46  A    between atoms: _121  and  _122
REMARK   47  A    between atoms: _122  and  _123
REMARK   48  A    between atoms: _123  and  _124
REMARK   49  A    between atoms: _133  and  _135
REMARK   50  A    between atoms: _135  and  _136
REMARK   51  A    between atoms: _135  and  _138
REMARK   52  A    between atoms: _138  and  _139
REMARK   53  A    between atoms: _139  and  _140
REMARK   54  A    between atoms: _145  and  _147
REMARK   55  A    between atoms: _147  and  _148
REMARK   56  A    between atoms: _151  and  _153
REMARK   57  A    between atoms: _153  and  _154
REMARK   58  A    between atoms: _153  and  _156
REMARK   59  A    between atoms: _159  and  _161
REMARK   60  A    between atoms: _161  and  _162
REMARK   61  A    between atoms: _161  and  _164
REMARK   62  A    between atoms: _164  and  _165
REMARK   63  A    between atoms: _168  and  _170
REMARK   64  A    between atoms: _170  and  _171
REMARK   65  A    between atoms: _170  and  _173
REMARK   66  A    between atoms: _173  and  _174
REMARK   67  A    between atoms: _180  and  _182
REMARK   68  A    between atoms: _182  and  _183
REMARK   69  A    between atoms: _182  and  _185
REMARK   70  A    between atoms: _185  and  _186
REMARK   71  A    between atoms: _191  and  _193
REMARK   72  A    between atoms: _193  and  _194
REMARK   73  A    between atoms: _193  and  _196
REMARK   74  A    between atoms: _196  and  _197
REMARK   75  A    between atoms: _199  and  _201
REMARK   76  A    between atoms: _201  and  _202
REMARK   77  A    between atoms: _201  and  _204
REMARK   78  A    between atoms: _204  and  _205
REMARK   79  A    between atoms: _205  and  _206
REMARK   80  A    between atoms: _206  and  _207
REMARK   81  A    between atoms: _217  and  _218
REMARK   82  A    between atoms: _223  and  _225
REMARK   83  A    between atoms: _225  and  _226
REMARK   84  A    between atoms: _225  and  _228
REMARK   85  A    between atoms: _228  and  _229
REMARK   86  A    between atoms: _239  and  _241
REMARK   87  A    between atoms: _241  and  _242
REMARK   88  A    between atoms: _241  and  _244
REMARK   89  A    between atoms: _244  and  _245
REMARK   90  A    between atoms: _248  and  _250
REMARK   91  A    between atoms: _250  and  _251
REMARK   92  A    between atoms: _250  and  _253
REMARK   93  A    between atoms: _256  and  _258
REMARK   94  A    between atoms: _258  and  _259
REMARK   95  A    between atoms: _258  and  _261
REMARK   96  A    between atoms: _261  and  _262
REMARK   97  A    between atoms: _262  and  _263
REMARK   98  A    between atoms: _266  and  _268
REMARK   99  A    between atoms: _268  and  _269
REMARK  100  A    between atoms: _268  and  _271
REMARK  101  A    between atoms: _271  and  _272
REMARK  102  A    between atoms: _272  and  _273
REMARK  103  A    between atoms: _278  and  _280
REMARK  104  A    between atoms: _280  and  _281
REMARK  105  A    between atoms: _280  and  _283
REMARK  106  A    between atoms: _283  and  _284
REMARK  107  A    between atoms: _284  and  _285
REMARK  108  A    between atoms: _285  and  _286
REMARK  109  A    between atoms: _295  and  _297
REMARK  110  A    between atoms: _297  and  _298
REMARK  111  A    between atoms: _297  and  _300
REMARK  112  A    between atoms: _300  and  _301
REMARK  113  A    between atoms: _301  and  _302
REMARK  114  A    between atoms: _307  and  _309
REMARK  115  A    between atoms: _309  and  _310
REMARK  116  A    between atoms: _309  and  _312
REMARK  117  A    between atoms: _312  and  _313
REMARK                            x       y       z     vdW  Elec       q    Type
REMARK                         _______ _______ _______ _____ _____    ______ ____
ROOT
ATOM      1  O   HOH     1      35.567   3.591   0.503  0.00  0.00    +0.000 OA
ENDROOT
TORSDOF 0
REMARK  Name = ../refined-set-2016/3m3e/3m3e_pocket.pdb
REMARK  117 active torsions:
REMARK  status: ('A' for Active; 'I' for Inactive)
REMARK    1  A    between atoms: _1  and  _3
REMARK    2  A    between atoms: _3  and  _4
REMARK    3  A    between atoms: _6  and  _8
REMARK    4  A    between atoms: _8  and  _9
REMARK    5  A    between atoms: _8  and  _11
REMARK    6  A    between atoms: _11  and  _12
REMARK    7  A    between atoms: _18  and  _19
REMARK    8  A    between atoms: _24  and  _26
REMARK    9  A    between atoms: _26  and  _27
REMARK   10  A    between atoms: _26  and  _29
REMARK   11  A    between atoms: _29  and  _30
REMARK   12  A    between atoms: _35  and  _37
REMARK   13  A    between atoms: _37  and  _38
REMARK   14  A    between atoms: _37  and  _40
REMARK   15  A    between atoms: _40  and  _41
REMARK   16  A    between atoms: _44  and  _46
REMARK   17  A    between atoms: _46  and  _47
REMARK   18  A    between atoms: _46  and  _49
REMARK   19  A    between atoms: _49  and  _50
REMARK   20  A    between atoms: _53  and  _55
REMARK   21  A    between atoms: _55  and  _56
REMARK   22  A    between atoms: _55  and  _58
REMARK   23  A    between atoms: _58  and  _59
REMARK   24  A    between atoms: _64  and  _66
REMARK   25  A    between atoms: _66  and  _67
REMARK   26  A    between atoms: _66  and  _69
REMARK   27  A    between atoms: _69  and  _70
REMARK   28  A    between atoms: _75  and  _76
REMARK   29  A    between atoms: _78  and  _80
REMARK   30  A    between atoms: _80  and  _81
REMARK   31  A    between atoms: _80  and  _83
REMARK   32  A    between atoms: _83  and  _84
REMARK   33  A    between atoms: _89  and  _91
REMARK   34  A    between atoms: _91  and  _92
REMARK   35  A    between atoms: _91  and  _94
REMARK   36  A    between atoms: _94  and  _95
REMARK   37  A    between atoms: _98  and  _100
REMARK   38  A    between atoms: _100  and  _101
REMARK   39  A    between atoms: _104  and  _106
REMARK   40  A    between atoms: _106  and  _107
REMARK   41  A    between atoms: _106  and  _109
REMARK   42  A    between atoms: _109  and  _110
REMARK   43  A    between atoms: _116  and  _118
REMARK   44  A    between atoms: _118  and  _119
REMARK   45  A    between atoms: _118  and  _121
REMARK   46  A    between atoms: _121  and  _122
REMARK   47  A    between atoms: _122  and  _123
REMARK   48  A    between atoms: _123  and  _124
REMARK   49  A    between atoms: _133  and  _135
REMARK   50  A    between atoms: _135  and  _136
REMARK   51  A    between atoms: _135  and  _138
REMARK   52  A    between atoms: _138  and  _139
REMARK   53  A    between atoms: _139  and  _140
REMARK   54  A    between atoms: _145  and  _147
REMARK   55  A    between atoms: _147  and  _148
REMARK   56  A    between atoms: _151  and  _153
REMARK   57  A    between atoms: _153  and  _154
REMARK   58  A    between atoms: _153  and  _156
REMARK   59  A    between atoms: _159  and  _161
REMARK   60  A    between atoms: _161  and  _162
REMARK   61  A    between atoms: _161  and  _164
REMARK   62  A    between atoms: _164  and  _165
REMARK   63  A    between atoms: _168  and  _170
REMARK   64  A    between atoms: _170  and  _171
REMARK   65  A    between atoms: _170  and  _173
REMARK   66  A    between atoms: _173  and  _174
REMARK   67  A    between atoms: _180  and  _182
REMARK   68  A    between atoms: _182  and  _183
REMARK   69  A    between atoms: _182  and  _185
REMARK   70  A    between atoms: _185  and  _186
REMARK   71  A    between atoms: _191  and  _193
REMARK   72  A    between atoms: _193  and  _194
REMARK   73  A    between atoms: _193  and  _196
REMARK   74  A    between atoms: _196  and  _197
REMARK   75  A    between atoms: _199  and  _201
REMARK   76  A    between atoms: _201  and  _202
REMARK   77  A    between atoms: _201  and  _204
REMARK   78  A    between atoms: _204  and  _205
REMARK   79  A    between atoms: _205  and  _206
REMARK   80  A    between atoms: _206  and  _207
REMARK   81  A    between atoms: _217  and  _218
REMARK   82  A    between atoms: _223  and  _225
REMARK   83  A    between atoms: _225  and  _226
REMARK   84  A    between atoms: _225  and  _228
REMARK   85  A    between atoms: _228  and  _229
REMARK   86  A    between atoms: _239  and  _241
REMARK   87  A    between atoms: _241  and  _242
REMARK   88  A    between atoms: _241  and  _244
REMARK   89  A    between atoms: _244  and  _245
REMARK   90  A    between atoms: _248  and  _250
REMARK   91  A    between atoms: _250  and  _251
REMARK   92  A    between atoms: _250  and  _253
REMARK   93  A    between atoms: _256  and  _258
REMARK   94  A    between atoms: _258  and  _259
REMARK   95  A    between atoms: _258  and  _261
REMARK   96  A    between atoms: _261  and  _262
REMARK   97  A    between atoms: _262  and  _263
REMARK   98  A    between atoms: _266  and  _268
REMARK   99  A    between atoms: _268  and  _269
REMARK  100  A    between atoms: _268  and  _271
REMARK  101  A    between atoms: _271  and  _272
REMARK  102  A    between atoms: _272  and  _273
REMARK  103  A    between atoms: _278  and  _280
REMARK  104  A    between atoms: _280  and  _281
REMARK  105  A    between atoms: _280  and  _283
REMARK  106  A    between atoms: _283  and  _284
REMARK  107  A    between atoms: _284  and  _285
REMARK  108  A    between atoms: _285  and  _286
REMARK  109  A    between atoms: _295  and  _297
REMARK  110  A    between atoms: _297  and  _298
REMARK  111  A    between atoms: _297  and  _300
REMARK  112  A    between atoms: _300  and  _301
REMARK  113  A    between atoms: _301  and  _302
REMARK  114  A    between atoms: _307  and  _309
REMARK  115  A    between atoms: _309  and  _310
REMARK  116  A    between atoms: _309  and  _312
REMARK  117  A    between atoms: _312  and  _313
REMARK                            x       y       z     vdW  Elec       q    Type
REMARK                         _______ _______ _______ _____ _____    ______ ____
ROOT
ATOM      1  O   HOH     1      41.876   3.429  13.444  0.00  0.00    +0.000 OA
ENDROOT
TORSDOF 0
REMARK  Name = ../refined-set-2016/3m3e/3m3e_pocket.pdb
REMARK  117 active torsions:
REMARK  status: ('A' for Active; 'I' for Inactive)
REMARK    1  A    between atoms: _1  and  _3
REMARK    2  A    between atoms: _3  and  _4
REMARK    3  A    between atoms: _6  and  _8
REMARK    4  A    between atoms: _8  and  _9
REMARK    5  A    between atoms: _8  and  _11
REMARK    6  A    between atoms: _11  and  _12
REMARK    7  A    between atoms: _18  and  _19
REMARK    8  A    between atoms: _24  and  _26
REMARK    9  A    between atoms: _26  and  _27
REMARK   10  A    between atoms: _26  and  _29
REMARK   11  A    between atoms: _29  and  _30
REMARK   12  A    between atoms: _35  and  _37
REMARK   13  A    between atoms: _37  and  _38
REMARK   14  A    between atoms: _37  and  _40
REMARK   15  A    between atoms: _40  and  _41
REMARK   16  A    between atoms: _44  and  _46
REMARK   17  A    between atoms: _46  and  _47
REMARK   18  A    between atoms: _46  and  _49
REMARK   19  A    between atoms: _49  and  _50
REMARK   20  A    between atoms: _53  and  _55
REMARK   21  A    between atoms: _55  and  _56
REMARK   22  A    between atoms: _55  and  _58
REMARK   23  A    between atoms: _58  and  _59
REMARK   24  A    between atoms: _64  and  _66
REMARK   25  A    between atoms: _66  and  _67
REMARK   26  A    between atoms: _66  and  _69
REMARK   27  A    between atoms: _69  and  _70
REMARK   28  A    between atoms: _75  and  _76
REMARK   29  A    between atoms: _78  and  _80
REMARK   30  A    between atoms: _80  and  _81
REMARK   31  A    between atoms: _80  and  _83
REMARK   32  A    between atoms: _83  and  _84
REMARK   33  A    between atoms: _89  and  _91
REMARK   34  A    between atoms: _91  and  _92
REMARK   35  A    between atoms: _91  and  _94
REMARK   36  A    between atoms: _94  and  _95
REMARK   37  A    between atoms: _98  and  _100
REMARK   38  A    between atoms: _100  and  _101
REMARK   39  A    between atoms: _104  and  _106
REMARK   40  A    between atoms: _106  and  _107
REMARK   41  A    between atoms: _106  and  _109
REMARK   42  A    between atoms: _109  and  _110
REMARK   43  A    between atoms: _116  and  _118
REMARK   44  A    between atoms: _118  and  _119
REMARK   45  A    between atoms: _118  and  _121
REMARK   46  A    between atoms: _121  and  _122
REMARK   47  A    between atoms: _122  and  _123
REMARK   48  A    between atoms: _123  and  _124
REMARK   49  A    between atoms: _133  and  _135
REMARK   50  A    between atoms: _135  and  _136
REMARK   51  A    between atoms: _135  and  _138
REMARK   52  A    between atoms: _138  and  _139
REMARK   53  A    between atoms: _139  and  _140
REMARK   54  A    between atoms: _145  and  _147
REMARK   55  A    between atoms: _147  and  _148
REMARK   56  A    between atoms: _151  and  _153
REMARK   57  A    between atoms: _153  and  _154
REMARK   58  A    between atoms: _153  and  _156
REMARK   59  A    between atoms: _159  and  _161
REMARK   60  A    between atoms: _161  and  _162
REMARK   61  A    between atoms: _161  and  _164
REMARK   62  A    between atoms: _164  and  _165
REMARK   63  A    between atoms: _168  and  _170
REMARK   64  A    between atoms: _170  and  _171
REMARK   65  A    between atoms: _170  and  _173
REMARK   66  A    between atoms: _173  and  _174
REMARK   67  A    between atoms: _180  and  _182
REMARK   68  A    between atoms: _182  and  _183
REMARK   69  A    between atoms: _182  and  _185
REMARK   70  A    between atoms: _185  and  _186
REMARK   71  A    between atoms: _191  and  _193
REMARK   72  A    between atoms: _193  and  _194
REMARK   73  A    between atoms: _193  and  _196
REMARK   74  A    between atoms: _196  and  _197
REMARK   75  A    between atoms: _199  and  _201
REMARK   76  A    between atoms: _201  and  _202
REMARK   77  A    between atoms: _201  and  _204
REMARK   78  A    between atoms: _204  and  _205
REMARK   79  A    between atoms: _205  and  _206
REMARK   80  A    between atoms: _206  and  _207
REMARK   81  A    between atoms: _217  and  _218
REMARK   82  A    between atoms: _223  and  _225
REMARK   83  A    between atoms: _225  and  _226
REMARK   84  A    between atoms: _225  and  _228
REMARK   85  A    between atoms: _228  and  _229
REMARK   86  A    between atoms: _239  and  _241
REMARK   87  A    between atoms: _241  and  _242
REMARK   88  A    between atoms: _241  and  _244
REMARK   89  A    between atoms: _244  and  _245
REMARK   90  A    between atoms: _248  and  _250
REMARK   91  A    between atoms: _250  and  _251
REMARK   92  A    between atoms: _250  and  _253
REMARK   93  A    between atoms: _256  and  _258
REMARK   94  A    between atoms: _258  and  _259
REMARK   95  A    between atoms: _258  and  _261
REMARK   96  A    between atoms: _261  and  _262
REMARK   97  A    between atoms: _262  and  _263
REMARK   98  A    between atoms: _266  and  _268
REMARK   99  A    between atoms: _268  and  _269
REMARK  100  A    between atoms: _268  and  _271
REMARK  101  A    between atoms: _271  and  _272
REMARK  102  A    between atoms: _272  and  _273
REMARK  103  A    between atoms: _278  and  _280
REMARK  104  A    between atoms: _280  and  _281
REMARK  105  A    between atoms: _280  and  _283
REMARK  106  A    between atoms: _283  and  _284
REMARK  107  A    between atoms: _284  and  _285
REMARK  108  A    between atoms: _285  and  _286
REMARK  109  A    between atoms: _295  and  _297
REMARK  110  A    between atoms: _297  and  _298
REMARK  111  A    between atoms: _297  and  _300
REMARK  112  A    between atoms: _300  and  _301
REMARK  113  A    between atoms: _301  and  _302
REMARK  114  A    between atoms: _307  and  _309
REMARK  115  A    between atoms: _309  and  _310
REMARK  116  A    between atoms: _309  and  _312
REMARK  117  A    between atoms: _312  and  _313
REMARK                            x       y       z     vdW  Elec       q    Type
REMARK                         _______ _______ _______ _____ _____    ______ ____
ROOT
ATOM      1  O   HOH     1      44.905   4.733  10.842  0.00  0.00    +0.000 OA
ENDROOT
TORSDOF 0
REMARK  Name = ../refined-set-2016/3m3e/3m3e_pocket.pdb
REMARK  117 active torsions:
REMARK  status: ('A' for Active; 'I' for Inactive)
REMARK    1  A    between atoms: _1  and  _3
REMARK    2  A    between atoms: _3  and  _4
REMARK    3  A    between atoms: _6  and  _8
REMARK    4  A    between atoms: _8  and  _9
REMARK    5  A    between atoms: _8  and  _11
REMARK    6  A    between atoms: _11  and  _12
REMARK    7  A    between atoms: _18  and  _19
REMARK    8  A    between atoms: _24  and  _26
REMARK    9  A    between atoms: _26  and  _27
REMARK   10  A    between atoms: _26  and  _29
REMARK   11  A    between atoms: _29  and  _30
REMARK   12  A    between atoms: _35  and  _37
REMARK   13  A    between atoms: _37  and  _38
REMARK   14  A    between atoms: _37  and  _40
REMARK   15  A    between atoms: _40  and  _41
REMARK   16  A    between atoms: _44  and  _46
REMARK   17  A    between atoms: _46  and  _47
REMARK   18  A    between atoms: _46  and  _49
REMARK   19  A    between atoms: _49  and  _50
REMARK   20  A    between atoms: _53  and  _55
REMARK   21  A    between atoms: _55  and  _56
REMARK   22  A    between atoms: _55  and  _58
REMARK   23  A    between atoms: _58  and  _59
REMARK   24  A    between atoms: _64  and  _66
REMARK   25  A    between atoms: _66  and  _67
REMARK   26  A    between atoms: _66  and  _69
REMARK   27  A    between atoms: _69  and  _70
REMARK   28  A    between atoms: _75  and  _76
REMARK   29  A    between atoms: _78  and  _80
REMARK   30  A    between atoms: _80  and  _81
REMARK   31  A    between atoms: _80  and  _83
REMARK   32  A    between atoms: _83  and  _84
REMARK   33  A    between atoms: _89  and  _91
REMARK   34  A    between atoms: _91  and  _92
REMARK   35  A    between atoms: _91  and  _94
REMARK   36  A    between atoms: _94  and  _95
REMARK   37  A    between atoms: _98  and  _100
REMARK   38  A    between atoms: _100  and  _101
REMARK   39  A    between atoms: _104  and  _106
REMARK   40  A    between atoms: _106  and  _107
REMARK   41  A    between atoms: _106  and  _109
REMARK   42  A    between atoms: _109  and  _110
REMARK   43  A    between atoms: _116  and  _118
REMARK   44  A    between atoms: _118  and  _119
REMARK   45  A    between atoms: _118  and  _121
REMARK   46  A    between atoms: _121  and  _122
REMARK   47  A    between atoms: _122  and  _123
REMARK   48  A    between atoms: _123  and  _124
REMARK   49  A    between atoms: _133  and  _135
REMARK   50  A    between atoms: _135  and  _136
REMARK   51  A    between atoms: _135  and  _138
REMARK   52  A    between atoms: _138  and  _139
REMARK   53  A    between atoms: _139  and  _140
REMARK   54  A    between atoms: _145  and  _147
REMARK   55  A    between atoms: _147  and  _148
REMARK   56  A    between atoms: _151  and  _153
REMARK   57  A    between atoms: _153  and  _154
REMARK   58  A    between atoms: _153  and  _156
REMARK   59  A    between atoms: _159  and  _161
REMARK   60  A    between atoms: _161  and  _162
REMARK   61  A    between atoms: _161  and  _164
REMARK   62  A    between atoms: _164  and  _165
REMARK   63  A    between atoms: _168  and  _170
REMARK   64  A    between atoms: _170  and  _171
REMARK   65  A    between atoms: _170  and  _173
REMARK   66  A    between atoms: _173  and  _174
REMARK   67  A    between atoms: _180  and  _182
REMARK   68  A    between atoms: _182  and  _183
REMARK   69  A    between atoms: _182  and  _185
REMARK   70  A    between atoms: _185  and  _186
REMARK   71  A    between atoms: _191  and  _193
REMARK   72  A    between atoms: _193  and  _194
REMARK   73  A    between atoms: _193  and  _196
REMARK   74  A    between atoms: _196  and  _197
REMARK   75  A    between atoms: _199  and  _201
REMARK   76  A    between atoms: _201  and  _202
REMARK   77  A    between atoms: _201  and  _204
REMARK   78  A    between atoms: _204  and  _205
REMARK   79  A    between atoms: _205  and  _206
REMARK   80  A    between atoms: _206  and  _207
REMARK   81  A    between atoms: _217  and  _218
REMARK   82  A    between atoms: _223  and  _225
REMARK   83  A    between atoms: _225  and  _226
REMARK   84  A    between atoms: _225  and  _228
REMARK   85  A    between atoms: _228  and  _229
REMARK   86  A    between atoms: _239  and  _241
REMARK   87  A    between atoms: _241  and  _242
REMARK   88  A    between atoms: _241  and  _244
REMARK   89  A    between atoms: _244  and  _245
REMARK   90  A    between atoms: _248  and  _250
REMARK   91  A    between atoms: _250  and  _251
REMARK   92  A    between atoms: _250  and  _253
REMARK   93  A    between atoms: _256  and  _258
REMARK   94  A    between atoms: _258  and  _259
REMARK   95  A    between atoms: _258  and  _261
REMARK   96  A    between atoms: _261  and  _262
REMARK   97  A    between atoms: _262  and  _263
REMARK   98  A    between atoms: _266  and  _268
REMARK   99  A    between atoms: _268  and  _269
REMARK  100  A    between atoms: _268  and  _271
REMARK  101  A    between atoms: _271  and  _272
REMARK  102  A    between atoms: _272  and  _273
REMARK  103  A    between atoms: _278  and  _280
REMARK  104  A    between atoms: _280  and  _281
REMARK  105  A    between atoms: _280  and  _283
REMARK  106  A    between atoms: _283  and  _284
REMARK  107  A    between atoms: _284  and  _285
REMARK  108  A    between atoms: _285  and  _286
REMARK  109  A    between atoms: _295  and  _297
REMARK  110  A    between atoms: _297  and  _298
REMARK  111  A    between atoms: _297  and  _300
REMARK  112  A    between atoms: _300  and  _301
REMARK  113  A    between atoms: _301  and  _302
REMARK  114  A    between atoms: _307  and  _309
REMARK  115  A    between atoms: _309  and  _310
REMARK  116  A    between atoms: _309  and  _312
REMARK  117  A    between atoms: _312  and  _313
REMARK                            x       y       z     vdW  Elec       q    Type
REMARK                         _______ _______ _______ _____ _____    ______ ____
ROOT
ATOM      1  O   HOH     1      36.830   8.189   6.810  0.00  0.00    +0.000 OA
ENDROOT
TORSDOF 0
REMARK  Name = ../refined-set-2016/3m3e/3m3e_pocket.pdb
REMARK  117 active torsions:
REMARK  status: ('A' for Active; 'I' for Inactive)
REMARK    1  A    between atoms: _1  and  _3
REMARK    2  A    between atoms: _3  and  _4
REMARK    3  A    between atoms: _6  and  _8
REMARK    4  A    between atoms: _8  and  _9
REMARK    5  A    between atoms: _8  and  _11
REMARK    6  A    between atoms: _11  and  _12
REMARK    7  A    between atoms: _18  and  _19
REMARK    8  A    between atoms: _24  and  _26
REMARK    9  A    between atoms: _26  and  _27
REMARK   10  A    between atoms: _26  and  _29
REMARK   11  A    between atoms: _29  and  _30
REMARK   12  A    between atoms: _35  and  _37
REMARK   13  A    between atoms: _37  and  _38
REMARK   14  A    between atoms: _37  and  _40
REMARK   15  A    between atoms: _40  and  _41
REMARK   16  A    between atoms: _44  and  _46
REMARK   17  A    between atoms: _46  and  _47
REMARK   18  A    between atoms: _46  and  _49
REMARK   19  A    between atoms: _49  and  _50
REMARK   20  A    between atoms: _53  and  _55
REMARK   21  A    between atoms: _55  and  _56
REMARK   22  A    between atoms: _55  and  _58
REMARK   23  A    between atoms: _58  and  _59
REMARK   24  A    between atoms: _64  and  _66
REMARK   25  A    between atoms: _66  and  _67
REMARK   26  A    between atoms: _66  and  _69
REMARK   27  A    between atoms: _69  and  _70
REMARK   28  A    between atoms: _75  and  _76
REMARK   29  A    between atoms: _78  and  _80
REMARK   30  A    between atoms: _80  and  _81
REMARK   31  A    between atoms: _80  and  _83
REMARK   32  A    between atoms: _83  and  _84
REMARK   33  A    between atoms: _89  and  _91
REMARK   34  A    between atoms: _91  and  _92
REMARK   35  A    between atoms: _91  and  _94
REMARK   36  A    between atoms: _94  and  _95
REMARK   37  A    between atoms: _98  and  _100
REMARK   38  A    between atoms: _100  and  _101
REMARK   39  A    between atoms: _104  and  _106
REMARK   40  A    between atoms: _106  and  _107
REMARK   41  A    between atoms: _106  and  _109
REMARK   42  A    between atoms: _109  and  _110
REMARK   43  A    between atoms: _116  and  _118
REMARK   44  A    between atoms: _118  and  _119
REMARK   45  A    between atoms: _118  and  _121
REMARK   46  A    between atoms: _121  and  _122
REMARK   47  A    between atoms: _122  and  _123
REMARK   48  A    between atoms: _123  and  _124
REMARK   49  A    between atoms: _133  and  _135
REMARK   50  A    between atoms: _135  and  _136
REMARK   51  A    between atoms: _135  and  _138
REMARK   52  A    between atoms: _138  and  _139
REMARK   53  A    between atoms: _139  and  _140
REMARK   54  A    between atoms: _145  and  _147
REMARK   55  A    between atoms: _147  and  _148
REMARK   56  A    between atoms: _151  and  _153
REMARK   57  A    between atoms: _153  and  _154
REMARK   58  A    between atoms: _153  and  _156
REMARK   59  A    between atoms: _159  and  _161
REMARK   60  A    between atoms: _161  and  _162
REMARK   61  A    between atoms: _161  and  _164
REMARK   62  A    between atoms: _164  and  _165
REMARK   63  A    between atoms: _168  and  _170
REMARK   64  A    between atoms: _170  and  _171
REMARK   65  A    between atoms: _170  and  _173
REMARK   66  A    between atoms: _173  and  _174
REMARK   67  A    between atoms: _180  and  _182
REMARK   68  A    between atoms: _182  and  _183
REMARK   69  A    between atoms: _182  and  _185
REMARK   70  A    between atoms: _185  and  _186
REMARK   71  A    between atoms: _191  and  _193
REMARK   72  A    between atoms: _193  and  _194
REMARK   73  A    between atoms: _193  and  _196
REMARK   74  A    between atoms: _196  and  _197
REMARK   75  A    between atoms: _199  and  _201
REMARK   76  A    between atoms: _201  and  _202
REMARK   77  A    between atoms: _201  and  _204
REMARK   78  A    between atoms: _204  and  _205
REMARK   79  A    between atoms: _205  and  _206
REMARK   80  A    between atoms: _206  and  _207
REMARK   81  A    between atoms: _217  and  _218
REMARK   82  A    between atoms: _223  and  _225
REMARK   83  A    between atoms: _225  and  _226
REMARK   84  A    between atoms: _225  and  _228
REMARK   85  A    between atoms: _228  and  _229
REMARK   86  A    between atoms: _239  and  _241
REMARK   87  A    between atoms: _241  and  _242
REMARK   88  A    between atoms: _241  and  _244
REMARK   89  A    between atoms: _244  and  _245
REMARK   90  A    between atoms: _248  and  _250
REMARK   91  A    between atoms: _250  and  _251
REMARK   92  A    between atoms: _250  and  _253
REMARK   93  A    between atoms: _256  and  _258
REMARK   94  A    between atoms: _258  and  _259
REMARK   95  A    between atoms: _258  and  _261
REMARK   96  A    between atoms: _261  and  _262
REMARK   97  A    between atoms: _262  and  _263
REMARK   98  A    between atoms: _266  and  _268
REMARK   99  A    between atoms: _268  and  _269
REMARK  100  A    between atoms: _268  and  _271
REMARK  101  A    between atoms: _271  and  _272
REMARK  102  A    between atoms: _272  and  _273
REMARK  103  A    between atoms: _278  and  _280
REMARK  104  A    between atoms: _280  and  _281
REMARK  105  A    between atoms: _280  and  _283
REMARK  106  A    between atoms: _283  and  _284
REMARK  107  A    between atoms: _284  and  _285
REMARK  108  A    between atoms: _285  and  _286
REMARK  109  A    between atoms: _295  and  _297
REMARK  110  A    between atoms: _297  and  _298
REMARK  111  A    between atoms: _297  and  _300
REMARK  112  A    between atoms: _300  and  _301
REMARK  113  A    between atoms: _301  and  _302
REMARK  114  A    between atoms: _307  and  _309
REMARK  115  A    between atoms: _309  and  _310
REMARK  116  A    between atoms: _309  and  _312
REMARK  117  A    between atoms: _312  and  _313
REMARK                            x       y       z     vdW  Elec       q    Type
REMARK                         _______ _______ _______ _____ _____    ______ ____
ROOT
ATOM      1  O   HOH     1      41.595   6.038   4.219  0.00  0.00    +0.000 OA
ENDROOT
TORSDOF 0
REMARK  Name = ../refined-set-2016/3m3e/3m3e_pocket.pdb
REMARK  117 active torsions:
REMARK  status: ('A' for Active; 'I' for Inactive)
REMARK    1  A    between atoms: _1  and  _3
REMARK    2  A    between atoms: _3  and  _4
REMARK    3  A    between atoms: _6  and  _8
REMARK    4  A    between atoms: _8  and  _9
REMARK    5  A    between atoms: _8  and  _11
REMARK    6  A    between atoms: _11  and  _12
REMARK    7  A    between atoms: _18  and  _19
REMARK    8  A    between atoms: _24  and  _26
REMARK    9  A    between atoms: _26  and  _27
REMARK   10  A    between atoms: _26  and  _29
REMARK   11  A    between atoms: _29  and  _30
REMARK   12  A    between atoms: _35  and  _37
REMARK   13  A    between atoms: _37  and  _38
REMARK   14  A    between atoms: _37  and  _40
REMARK   15  A    between atoms: _40  and  _41
REMARK   16  A    between atoms: _44  and  _46
REMARK   17  A    between atoms: _46  and  _47
REMARK   18  A    between atoms: _46  and  _49
REMARK   19  A    between atoms: _49  and  _50
REMARK   20  A    between atoms: _53  and  _55
REMARK   21  A    between atoms: _55  and  _56
REMARK   22  A    between atoms: _55  and  _58
REMARK   23  A    between atoms: _58  and  _59
REMARK   24  A    between atoms: _64  and  _66
REMARK   25  A    between atoms: _66  and  _67
REMARK   26  A    between atoms: _66  and  _69
REMARK   27  A    between atoms: _69  and  _70
REMARK   28  A    between atoms: _75  and  _76
REMARK   29  A    between atoms: _78  and  _80
REMARK   30  A    between atoms: _80  and  _81
REMARK   31  A    between atoms: _80  and  _83
REMARK   32  A    between atoms: _83  and  _84
REMARK   33  A    between atoms: _89  and  _91
REMARK   34  A    between atoms: _91  and  _92
REMARK   35  A    between atoms: _91  and  _94
REMARK   36  A    between atoms: _94  and  _95
REMARK   37  A    between atoms: _98  and  _100
REMARK   38  A    between atoms: _100  and  _101
REMARK   39  A    between atoms: _104  and  _106
REMARK   40  A    between atoms: _106  and  _107
REMARK   41  A    between atoms: _106  and  _109
REMARK   42  A    between atoms: _109  and  _110
REMARK   43  A    between atoms: _116  and  _118
REMARK   44  A    between atoms: _118  and  _119
REMARK   45  A    between atoms: _118  and  _121
REMARK   46  A    between atoms: _121  and  _122
REMARK   47  A    between atoms: _122  and  _123
REMARK   48  A    between atoms: _123  and  _124
REMARK   49  A    between atoms: _133  and  _135
REMARK   50  A    between atoms: _135  and  _136
REMARK   51  A    between atoms: _135  and  _138
REMARK   52  A    between atoms: _138  and  _139
REMARK   53  A    between atoms: _139  and  _140
REMARK   54  A    between atoms: _145  and  _147
REMARK   55  A    between atoms: _147  and  _148
REMARK   56  A    between atoms: _151  and  _153
REMARK   57  A    between atoms: _153  and  _154
REMARK   58  A    between atoms: _153  and  _156
REMARK   59  A    between atoms: _159  and  _161
REMARK   60  A    between atoms: _161  and  _162
REMARK   61  A    between atoms: _161  and  _164
REMARK   62  A    between atoms: _164  and  _165
REMARK   63  A    between atoms: _168  and  _170
REMARK   64  A    between atoms: _170  and  _171
REMARK   65  A    between atoms: _170  and  _173
REMARK   66  A    between atoms: _173  and  _174
REMARK   67  A    between atoms: _180  and  _182
REMARK   68  A    between atoms: _182  and  _183
REMARK   69  A    between atoms: _182  and  _185
REMARK   70  A    between atoms: _185  and  _186
REMARK   71  A    between atoms: _191  and  _193
REMARK   72  A    between atoms: _193  and  _194
REMARK   73  A    between atoms: _193  and  _196
REMARK   74  A    between atoms: _196  and  _197
REMARK   75  A    between atoms: _199  and  _201
REMARK   76  A    between atoms: _201  and  _202
REMARK   77  A    between atoms: _201  and  _204
REMARK   78  A    between atoms: _204  and  _205
REMARK   79  A    between atoms: _205  and  _206
REMARK   80  A    between atoms: _206  and  _207
REMARK   81  A    between atoms: _217  and  _218
REMARK   82  A    between atoms: _223  and  _225
REMARK   83  A    between atoms: _225  and  _226
REMARK   84  A    between atoms: _225  and  _228
REMARK   85  A    between atoms: _228  and  _229
REMARK   86  A    between atoms: _239  and  _241
REMARK   87  A    between atoms: _241  and  _242
REMARK   88  A    between atoms: _241  and  _244
REMARK   89  A    between atoms: _244  and  _245
REMARK   90  A    between atoms: _248  and  _250
REMARK   91  A    between atoms: _250  and  _251
REMARK   92  A    between atoms: _250  and  _253
REMARK   93  A    between atoms: _256  and  _258
REMARK   94  A    between atoms: _258  and  _259
REMARK   95  A    between atoms: _258  and  _261
REMARK   96  A    between atoms: _261  and  _262
REMARK   97  A    between atoms: _262  and  _263
REMARK   98  A    between atoms: _266  and  _268
REMARK   99  A    between atoms: _268  and  _269
REMARK  100  A    between atoms: _268  and  _271
REMARK  101  A    between atoms: _271  and  _272
REMARK  102  A    between atoms: _272  and  _273
REMARK  103  A    between atoms: _278  and  _280
REMARK  104  A    between atoms: _280  and  _281
REMARK  105  A    between atoms: _280  and  _283
REMARK  106  A    between atoms: _283  and  _284
REMARK  107  A    between atoms: _284  and  _285
REMARK  108  A    between atoms: _285  and  _286
REMARK  109  A    between atoms: _295  and  _297
REMARK  110  A    between atoms: _297  and  _298
REMARK  111  A    between atoms: _297  and  _300
REMARK  112  A    between atoms: _300  and  _301
REMARK  113  A    between atoms: _301  and  _302
REMARK  114  A    between atoms: _307  and  _309
REMARK  115  A    between atoms: _309  and  _310
REMARK  116  A    between atoms: _309  and  _312
REMARK  117  A    between atoms: _312  and  _313
REMARK                            x       y       z     vdW  Elec       q    Type
REMARK                         _______ _______ _______ _____ _____    ______ ____
ROOT
ATOM      1  O   HOH     1      38.112   6.202   1.195  0.00  0.00    +0.000 OA
ENDROOT
TORSDOF 0
REMARK  Name = ../refined-set-2016/3m3e/3m3e_pocket.pdb
REMARK  117 active torsions:
REMARK  status: ('A' for Active; 'I' for Inactive)
REMARK    1  A    between atoms: _1  and  _3
REMARK    2  A    between atoms: _3  and  _4
REMARK    3  A    between atoms: _6  and  _8
REMARK    4  A    between atoms: _8  and  _9
REMARK    5  A    between atoms: _8  and  _11
REMARK    6  A    between atoms: _11  and  _12
REMARK    7  A    between atoms: _18  and  _19
REMARK    8  A    between atoms: _24  and  _26
REMARK    9  A    between atoms: _26  and  _27
REMARK   10  A    between atoms: _26  and  _29
REMARK   11  A    between atoms: _29  and  _30
REMARK   12  A    between atoms: _35  and  _37
REMARK   13  A    between atoms: _37  and  _38
REMARK   14  A    between atoms: _37  and  _40
REMARK   15  A    between atoms: _40  and  _41
REMARK   16  A    between atoms: _44  and  _46
REMARK   17  A    between atoms: _46  and  _47
REMARK   18  A    between atoms: _46  and  _49
REMARK   19  A    between atoms: _49  and  _50
REMARK   20  A    between atoms: _53  and  _55
REMARK   21  A    between atoms: _55  and  _56
REMARK   22  A    between atoms: _55  and  _58
REMARK   23  A    between atoms: _58  and  _59
REMARK   24  A    between atoms: _64  and  _66
REMARK   25  A    between atoms: _66  and  _67
REMARK   26  A    between atoms: _66  and  _69
REMARK   27  A    between atoms: _69  and  _70
REMARK   28  A    between atoms: _75  and  _76
REMARK   29  A    between atoms: _78  and  _80
REMARK   30  A    between atoms: _80  and  _81
REMARK   31  A    between atoms: _80  and  _83
REMARK   32  A    between atoms: _83  and  _84
REMARK   33  A    between atoms: _89  and  _91
REMARK   34  A    between atoms: _91  and  _92
REMARK   35  A    between atoms: _91  and  _94
REMARK   36  A    between atoms: _94  and  _95
REMARK   37  A    between atoms: _98  and  _100
REMARK   38  A    between atoms: _100  and  _101
REMARK   39  A    between atoms: _104  and  _106
REMARK   40  A    between atoms: _106  and  _107
REMARK   41  A    between atoms: _106  and  _109
REMARK   42  A    between atoms: _109  and  _110
REMARK   43  A    between atoms: _116  and  _118
REMARK   44  A    between atoms: _118  and  _119
REMARK   45  A    between atoms: _118  and  _121
REMARK   46  A    between atoms: _121  and  _122
REMARK   47  A    between atoms: _122  and  _123
REMARK   48  A    between atoms: _123  and  _124
REMARK   49  A    between atoms: _133  and  _135
REMARK   50  A    between atoms: _135  and  _136
REMARK   51  A    between atoms: _135  and  _138
REMARK   52  A    between atoms: _138  and  _139
REMARK   53  A    between atoms: _139  and  _140
REMARK   54  A    between atoms: _145  and  _147
REMARK   55  A    between atoms: _147  and  _148
REMARK   56  A    between atoms: _151  and  _153
REMARK   57  A    between atoms: _153  and  _154
REMARK   58  A    between atoms: _153  and  _156
REMARK   59  A    between atoms: _159  and  _161
REMARK   60  A    between atoms: _161  and  _162
REMARK   61  A    between atoms: _161  and  _164
REMARK   62  A    between atoms: _164  and  _165
REMARK   63  A    between atoms: _168  and  _170
REMARK   64  A    between atoms: _170  and  _171
REMARK   65  A    between atoms: _170  and  _173
REMARK   66  A    between atoms: _173  and  _174
REMARK   67  A    between atoms: _180  and  _182
REMARK   68  A    between atoms: _182  and  _183
REMARK   69  A    between atoms: _182  and  _185
REMARK   70  A    between atoms: _185  and  _186
REMARK   71  A    between atoms: _191  and  _193
REMARK   72  A    between atoms: _193  and  _194
REMARK   73  A    between atoms: _193  and  _196
REMARK   74  A    between atoms: _196  and  _197
REMARK   75  A    between atoms: _199  and  _201
REMARK   76  A    between atoms: _201  and  _202
REMARK   77  A    between atoms: _201  and  _204
REMARK   78  A    between atoms: _204  and  _205
REMARK   79  A    between atoms: _205  and  _206
REMARK   80  A    between atoms: _206  and  _207
REMARK   81  A    between atoms: _217  and  _218
REMARK   82  A    between atoms: _223  and  _225
REMARK   83  A    between atoms: _225  and  _226
REMARK   84  A    between atoms: _225  and  _228
REMARK   85  A    between atoms: _228  and  _229
REMARK   86  A    between atoms: _239  and  _241
REMARK   87  A    between atoms: _241  and  _242
REMARK   88  A    between atoms: _241  and  _244
REMARK   89  A    between atoms: _244  and  _245
REMARK   90  A    between atoms: _248  and  _250
REMARK   91  A    between atoms: _250  and  _251
REMARK   92  A    between atoms: _250  and  _253
REMARK   93  A    between atoms: _256  and  _258
REMARK   94  A    between atoms: _258  and  _259
REMARK   95  A    between atoms: _258  and  _261
REMARK   96  A    between atoms: _261  and  _262
REMARK   97  A    between atoms: _262  and  _263
REMARK   98  A    between atoms: _266  and  _268
REMARK   99  A    between atoms: _268  and  _269
REMARK  100  A    between atoms: _268  and  _271
REMARK  101  A    between atoms: _271  and  _272
REMARK  102  A    between atoms: _272  and  _273
REMARK  103  A    between atoms: _278  and  _280
REMARK  104  A    between atoms: _280  and  _281
REMARK  105  A    between atoms: _280  and  _283
REMARK  106  A    between atoms: _283  and  _284
REMARK  107  A    between atoms: _284  and  _285
REMARK  108  A    between atoms: _285  and  _286
REMARK  109  A    between atoms: _295  and  _297
REMARK  110  A    between atoms: _297  and  _298
REMARK  111  A    between atoms: _297  and  _300
REMARK  112  A    between atoms: _300  and  _301
REMARK  113  A    between atoms: _301  and  _302
REMARK  114  A    between atoms: _307  and  _309
REMARK  115  A    between atoms: _309  and  _310
REMARK  116  A    between atoms: _309  and  _312
REMARK  117  A    between atoms: _312  and  _313
REMARK                            x       y       z     vdW  Elec       q    Type
REMARK                         _______ _______ _______ _____ _____    ______ ____
ROOT
ATOM      1  O   HOH     1      43.606  -1.763  12.221  0.00  0.00    +0.000 OA
ENDROOT
TORSDOF 0
REMARK  Name = ../refined-set-2016/3m3e/3m3e_pocket.pdb
REMARK  117 active torsions:
REMARK  status: ('A' for Active; 'I' for Inactive)
REMARK    1  A    between atoms: _1  and  _3
REMARK    2  A    between atoms: _3  and  _4
REMARK    3  A    between atoms: _6  and  _8
REMARK    4  A    between atoms: _8  and  _9
REMARK    5  A    between atoms: _8  and  _11
REMARK    6  A    between atoms: _11  and  _12
REMARK    7  A    between atoms: _18  and  _19
REMARK    8  A    between atoms: _24  and  _26
REMARK    9  A    between atoms: _26  and  _27
REMARK   10  A    between atoms: _26  and  _29
REMARK   11  A    between atoms: _29  and  _30
REMARK   12  A    between atoms: _35  and  _37
REMARK   13  A    between atoms: _37  and  _38
REMARK   14  A    between atoms: _37  and  _40
REMARK   15  A    between atoms: _40  and  _41
REMARK   16  A    between atoms: _44  and  _46
REMARK   17  A    between atoms: _46  and  _47
REMARK   18  A    between atoms: _46  and  _49
REMARK   19  A    between atoms: _49  and  _50
REMARK   20  A    between atoms: _53  and  _55
REMARK   21  A    between atoms: _55  and  _56
REMARK   22  A    between atoms: _55  and  _58
REMARK   23  A    between atoms: _58  and  _59
REMARK   24  A    between atoms: _64  and  _66
REMARK   25  A    between atoms: _66  and  _67
REMARK   26  A    between atoms: _66  and  _69
REMARK   27  A    between atoms: _69  and  _70
REMARK   28  A    between atoms: _75  and  _76
REMARK   29  A    between atoms: _78  and  _80
REMARK   30  A    between atoms: _80  and  _81
REMARK   31  A    between atoms: _80  and  _83
REMARK   32  A    between atoms: _83  and  _84
REMARK   33  A    between atoms: _89  and  _91
REMARK   34  A    between atoms: _91  and  _92
REMARK   35  A    between atoms: _91  and  _94
REMARK   36  A    between atoms: _94  and  _95
REMARK   37  A    between atoms: _98  and  _100
REMARK   38  A    between atoms: _100  and  _101
REMARK   39  A    between atoms: _104  and  _106
REMARK   40  A    between atoms: _106  and  _107
REMARK   41  A    between atoms: _106  and  _109
REMARK   42  A    between atoms: _109  and  _110
REMARK   43  A    between atoms: _116  and  _118
REMARK   44  A    between atoms: _118  and  _119
REMARK   45  A    between atoms: _118  and  _121
REMARK   46  A    between atoms: _121  and  _122
REMARK   47  A    between atoms: _122  and  _123
REMARK   48  A    between atoms: _123  and  _124
REMARK   49  A    between atoms: _133  and  _135
REMARK   50  A    between atoms: _135  and  _136
REMARK   51  A    between atoms: _135  and  _138
REMARK   52  A    between atoms: _138  and  _139
REMARK   53  A    between atoms: _139  and  _140
REMARK   54  A    between atoms: _145  and  _147
REMARK   55  A    between atoms: _147  and  _148
REMARK   56  A    between atoms: _151  and  _153
REMARK   57  A    between atoms: _153  and  _154
REMARK   58  A    between atoms: _153  and  _156
REMARK   59  A    between atoms: _159  and  _161
REMARK   60  A    between atoms: _161  and  _162
REMARK   61  A    between atoms: _161  and  _164
REMARK   62  A    between atoms: _164  and  _165
REMARK   63  A    between atoms: _168  and  _170
REMARK   64  A    between atoms: _170  and  _171
REMARK   65  A    between atoms: _170  and  _173
REMARK   66  A    between atoms: _173  and  _174
REMARK   67  A    between atoms: _180  and  _182
REMARK   68  A    between atoms: _182  and  _183
REMARK   69  A    between atoms: _182  and  _185
REMARK   70  A    between atoms: _185  and  _186
REMARK   71  A    between atoms: _191  and  _193
REMARK   72  A    between atoms: _193  and  _194
REMARK   73  A    between atoms: _193  and  _196
REMARK   74  A    between atoms: _196  and  _197
REMARK   75  A    between atoms: _199  and  _201
REMARK   76  A    between atoms: _201  and  _202
REMARK   77  A    between atoms: _201  and  _204
REMARK   78  A    between atoms: _204  and  _205
REMARK   79  A    between atoms: _205  and  _206
REMARK   80  A    between atoms: _206  and  _207
REMARK   81  A    between atoms: _217  and  _218
REMARK   82  A    between atoms: _223  and  _225
REMARK   83  A    between atoms: _225  and  _226
REMARK   84  A    between atoms: _225  and  _228
REMARK   85  A    between atoms: _228  and  _229
REMARK   86  A    between atoms: _239  and  _241
REMARK   87  A    between atoms: _241  and  _242
REMARK   88  A    between atoms: _241  and  _244
REMARK   89  A    between atoms: _244  and  _245
REMARK   90  A    between atoms: _248  and  _250
REMARK   91  A    between atoms: _250  and  _251
REMARK   92  A    between atoms: _250  and  _253
REMARK   93  A    between atoms: _256  and  _258
REMARK   94  A    between atoms: _258  and  _259
REMARK   95  A    between atoms: _258  and  _261
REMARK   96  A    between atoms: _261  and  _262
REMARK   97  A    between atoms: _262  and  _263
REMARK   98  A    between atoms: _266  and  _268
REMARK   99  A    between atoms: _268  and  _269
REMARK  100  A    between atoms: _268  and  _271
REMARK  101  A    between atoms: _271  and  _272
REMARK  102  A    between atoms: _272  and  _273
REMARK  103  A    between atoms: _278  and  _280
REMARK  104  A    between atoms: _280  and  _281
REMARK  105  A    between atoms: _280  and  _283
REMARK  106  A    between atoms: _283  and  _284
REMARK  107  A    between atoms: _284  and  _285
REMARK  108  A    between atoms: _285  and  _286
REMARK  109  A    between atoms: _295  and  _297
REMARK  110  A    between atoms: _297  and  _298
REMARK  111  A    between atoms: _297  and  _300
REMARK  112  A    between atoms: _300  and  _301
REMARK  113  A    between atoms: _301  and  _302
REMARK  114  A    between atoms: _307  and  _309
REMARK  115  A    between atoms: _309  and  _310
REMARK  116  A    between atoms: _309  and  _312
REMARK  117  A    between atoms: _312  and  _313
REMARK                            x       y       z     vdW  Elec       q    Type
REMARK                         _______ _______ _______ _____ _____    ______ ____
ROOT
ATOM      1  O   HOH     1      42.465  -1.823   2.385  0.00  0.00    +0.000 OA
ENDROOT
TORSDOF 0
REMARK  Name = ../refined-set-2016/3m3e/3m3e_pocket.pdb
REMARK  117 active torsions:
REMARK  status: ('A' for Active; 'I' for Inactive)
REMARK    1  A    between atoms: _1  and  _3
REMARK    2  A    between atoms: _3  and  _4
REMARK    3  A    between atoms: _6  and  _8
REMARK    4  A    between atoms: _8  and  _9
REMARK    5  A    between atoms: _8  and  _11
REMARK    6  A    between atoms: _11  and  _12
REMARK    7  A    between atoms: _18  and  _19
REMARK    8  A    between atoms: _24  and  _26
REMARK    9  A    between atoms: _26  and  _27
REMARK   10  A    between atoms: _26  and  _29
REMARK   11  A    between atoms: _29  and  _30
REMARK   12  A    between atoms: _35  and  _37
REMARK   13  A    between atoms: _37  and  _38
REMARK   14  A    between atoms: _37  and  _40
REMARK   15  A    between atoms: _40  and  _41
REMARK   16  A    between atoms: _44  and  _46
REMARK   17  A    between atoms: _46  and  _47
REMARK   18  A    between atoms: _46  and  _49
REMARK   19  A    between atoms: _49  and  _50
REMARK   20  A    between atoms: _53  and  _55
REMARK   21  A    between atoms: _55  and  _56
REMARK   22  A    between atoms: _55  and  _58
REMARK   23  A    between atoms: _58  and  _59
REMARK   24  A    between atoms: _64  and  _66
REMARK   25  A    between atoms: _66  and  _67
REMARK   26  A    between atoms: _66  and  _69
REMARK   27  A    between atoms: _69  and  _70
REMARK   28  A    between atoms: _75  and  _76
REMARK   29  A    between atoms: _78  and  _80
REMARK   30  A    between atoms: _80  and  _81
REMARK   31  A    between atoms: _80  and  _83
REMARK   32  A    between atoms: _83  and  _84
REMARK   33  A    between atoms: _89  and  _91
REMARK   34  A    between atoms: _91  and  _92
REMARK   35  A    between atoms: _91  and  _94
REMARK   36  A    between atoms: _94  and  _95
REMARK   37  A    between atoms: _98  and  _100
REMARK   38  A    between atoms: _100  and  _101
REMARK   39  A    between atoms: _104  and  _106
REMARK   40  A    between atoms: _106  and  _107
REMARK   41  A    between atoms: _106  and  _109
REMARK   42  A    between atoms: _109  and  _110
REMARK   43  A    between atoms: _116  and  _118
REMARK   44  A    between atoms: _118  and  _119
REMARK   45  A    between atoms: _118  and  _121
REMARK   46  A    between atoms: _121  and  _122
REMARK   47  A    between atoms: _122  and  _123
REMARK   48  A    between atoms: _123  and  _124
REMARK   49  A    between atoms: _133  and  _135
REMARK   50  A    between atoms: _135  and  _136
REMARK   51  A    between atoms: _135  and  _138
REMARK   52  A    between atoms: _138  and  _139
REMARK   53  A    between atoms: _139  and  _140
REMARK   54  A    between atoms: _145  and  _147
REMARK   55  A    between atoms: _147  and  _148
REMARK   56  A    between atoms: _151  and  _153
REMARK   57  A    between atoms: _153  and  _154
REMARK   58  A    between atoms: _153  and  _156
REMARK   59  A    between atoms: _159  and  _161
REMARK   60  A    between atoms: _161  and  _162
REMARK   61  A    between atoms: _161  and  _164
REMARK   62  A    between atoms: _164  and  _165
REMARK   63  A    between atoms: _168  and  _170
REMARK   64  A    between atoms: _170  and  _171
REMARK   65  A    between atoms: _170  and  _173
REMARK   66  A    between atoms: _173  and  _174
REMARK   67  A    between atoms: _180  and  _182
REMARK   68  A    between atoms: _182  and  _183
REMARK   69  A    between atoms: _182  and  _185
REMARK   70  A    between atoms: _185  and  _186
REMARK   71  A    between atoms: _191  and  _193
REMARK   72  A    between atoms: _193  and  _194
REMARK   73  A    between atoms: _193  and  _196
REMARK   74  A    between atoms: _196  and  _197
REMARK   75  A    between atoms: _199  and  _201
REMARK   76  A    between atoms: _201  and  _202
REMARK   77  A    between atoms: _201  and  _204
REMARK   78  A    between atoms: _204  and  _205
REMARK   79  A    between atoms: _205  and  _206
REMARK   80  A    between atoms: _206  and  _207
REMARK   81  A    between atoms: _217  and  _218
REMARK   82  A    between atoms: _223  and  _225
REMARK   83  A    between atoms: _225  and  _226
REMARK   84  A    between atoms: _225  and  _228
REMARK   85  A    between atoms: _228  and  _229
REMARK   86  A    between atoms: _239  and  _241
REMARK   87  A    between atoms: _241  and  _242
REMARK   88  A    between atoms: _241  and  _244
REMARK   89  A    between atoms: _244  and  _245
REMARK   90  A    between atoms: _248  and  _250
REMARK   91  A    between atoms: _250  and  _251
REMARK   92  A    between atoms: _250  and  _253
REMARK   93  A    between atoms: _256  and  _258
REMARK   94  A    between atoms: _258  and  _259
REMARK   95  A    between atoms: _258  and  _261
REMARK   96  A    between atoms: _261  and  _262
REMARK   97  A    between atoms: _262  and  _263
REMARK   98  A    between atoms: _266  and  _268
REMARK   99  A    between atoms: _268  and  _269
REMARK  100  A    between atoms: _268  and  _271
REMARK  101  A    between atoms: _271  and  _272
REMARK  102  A    between atoms: _272  and  _273
REMARK  103  A    between atoms: _278  and  _280
REMARK  104  A    between atoms: _280  and  _281
REMARK  105  A    between atoms: _280  and  _283
REMARK  106  A    between atoms: _283  and  _284
REMARK  107  A    between atoms: _284  and  _285
REMARK  108  A    between atoms: _285  and  _286
REMARK  109  A    between atoms: _295  and  _297
REMARK  110  A    between atoms: _297  and  _298
REMARK  111  A    between atoms: _297  and  _300
REMARK  112  A    between atoms: _300  and  _301
REMARK  113  A    between atoms: _301  and  _302
REMARK  114  A    between atoms: _307  and  _309
REMARK  115  A    between atoms: _309  and  _310
REMARK  116  A    between atoms: _309  and  _312
REMARK  117  A    between atoms: _312  and  _313
REMARK                            x       y       z     vdW  Elec       q    Type
REMARK                         _______ _______ _______ _____ _____    ______ ____
ROOT
ATOM      1  O   HOH     1      43.229  -3.215  15.482  0.00  0.00    +0.000 OA
ENDROOT
TORSDOF 0
REMARK  Name = ../refined-set-2016/3m3e/3m3e_pocket.pdb
REMARK  117 active torsions:
REMARK  status: ('A' for Active; 'I' for Inactive)
REMARK    1  A    between atoms: _1  and  _3
REMARK    2  A    between atoms: _3  and  _4
REMARK    3  A    between atoms: _6  and  _8
REMARK    4  A    between atoms: _8  and  _9
REMARK    5  A    between atoms: _8  and  _11
REMARK    6  A    between atoms: _11  and  _12
REMARK    7  A    between atoms: _18  and  _19
REMARK    8  A    between atoms: _24  and  _26
REMARK    9  A    between atoms: _26  and  _27
REMARK   10  A    between atoms: _26  and  _29
REMARK   11  A    between atoms: _29  and  _30
REMARK   12  A    between atoms: _35  and  _37
REMARK   13  A    between atoms: _37  and  _38
REMARK   14  A    between atoms: _37  and  _40
REMARK   15  A    between atoms: _40  and  _41
REMARK   16  A    between atoms: _44  and  _46
REMARK   17  A    between atoms: _46  and  _47
REMARK   18  A    between atoms: _46  and  _49
REMARK   19  A    between atoms: _49  and  _50
REMARK   20  A    between atoms: _53  and  _55
REMARK   21  A    between atoms: _55  and  _56
REMARK   22  A    between atoms: _55  and  _58
REMARK   23  A    between atoms: _58  and  _59
REMARK   24  A    between atoms: _64  and  _66
REMARK   25  A    between atoms: _66  and  _67
REMARK   26  A    between atoms: _66  and  _69
REMARK   27  A    between atoms: _69  and  _70
REMARK   28  A    between atoms: _75  and  _76
REMARK   29  A    between atoms: _78  and  _80
REMARK   30  A    between atoms: _80  and  _81
REMARK   31  A    between atoms: _80  and  _83
REMARK   32  A    between atoms: _83  and  _84
REMARK   33  A    between atoms: _89  and  _91
REMARK   34  A    between atoms: _91  and  _92
REMARK   35  A    between atoms: _91  and  _94
REMARK   36  A    between atoms: _94  and  _95
REMARK   37  A    between atoms: _98  and  _100
REMARK   38  A    between atoms: _100  and  _101
REMARK   39  A    between atoms: _104  and  _106
REMARK   40  A    between atoms: _106  and  _107
REMARK   41  A    between atoms: _106  and  _109
REMARK   42  A    between atoms: _109  and  _110
REMARK   43  A    between atoms: _116  and  _118
REMARK   44  A    between atoms: _118  and  _119
REMARK   45  A    between atoms: _118  and  _121
REMARK   46  A    between atoms: _121  and  _122
REMARK   47  A    between atoms: _122  and  _123
REMARK   48  A    between atoms: _123  and  _124
REMARK   49  A    between atoms: _133  and  _135
REMARK   50  A    between atoms: _135  and  _136
REMARK   51  A    between atoms: _135  and  _138
REMARK   52  A    between atoms: _138  and  _139
REMARK   53  A    between atoms: _139  and  _140
REMARK   54  A    between atoms: _145  and  _147
REMARK   55  A    between atoms: _147  and  _148
REMARK   56  A    between atoms: _151  and  _153
REMARK   57  A    between atoms: _153  and  _154
REMARK   58  A    between atoms: _153  and  _156
REMARK   59  A    between atoms: _159  and  _161
REMARK   60  A    between atoms: _161  and  _162
REMARK   61  A    between atoms: _161  and  _164
REMARK   62  A    between atoms: _164  and  _165
REMARK   63  A    between atoms: _168  and  _170
REMARK   64  A    between atoms: _170  and  _171
REMARK   65  A    between atoms: _170  and  _173
REMARK   66  A    between atoms: _173  and  _174
REMARK   67  A    between atoms: _180  and  _182
REMARK   68  A    between atoms: _182  and  _183
REMARK   69  A    between atoms: _182  and  _185
REMARK   70  A    between atoms: _185  and  _186
REMARK   71  A    between atoms: _191  and  _193
REMARK   72  A    between atoms: _193  and  _194
REMARK   73  A    between atoms: _193  and  _196
REMARK   74  A    between atoms: _196  and  _197
REMARK   75  A    between atoms: _199  and  _201
REMARK   76  A    between atoms: _201  and  _202
REMARK   77  A    between atoms: _201  and  _204
REMARK   78  A    between atoms: _204  and  _205
REMARK   79  A    between atoms: _205  and  _206
REMARK   80  A    between atoms: _206  and  _207
REMARK   81  A    between atoms: _217  and  _218
REMARK   82  A    between atoms: _223  and  _225
REMARK   83  A    between atoms: _225  and  _226
REMARK   84  A    between atoms: _225  and  _228
REMARK   85  A    between atoms: _228  and  _229
REMARK   86  A    between atoms: _239  and  _241
REMARK   87  A    between atoms: _241  and  _242
REMARK   88  A    between atoms: _241  and  _244
REMARK   89  A    between atoms: _244  and  _245
REMARK   90  A    between atoms: _248  and  _250
REMARK   91  A    between atoms: _250  and  _251
REMARK   92  A    between atoms: _250  and  _253
REMARK   93  A    between atoms: _256  and  _258
REMARK   94  A    between atoms: _258  and  _259
REMARK   95  A    between atoms: _258  and  _261
REMARK   96  A    between atoms: _261  and  _262
REMARK   97  A    between atoms: _262  and  _263
REMARK   98  A    between atoms: _266  and  _268
REMARK   99  A    between atoms: _268  and  _269
REMARK  100  A    between atoms: _268  and  _271
REMARK  101  A    between atoms: _271  and  _272
REMARK  102  A    between atoms: _272  and  _273
REMARK  103  A    between atoms: _278  and  _280
REMARK  104  A    between atoms: _280  and  _281
REMARK  105  A    between atoms: _280  and  _283
REMARK  106  A    between atoms: _283  and  _284
REMARK  107  A    between atoms: _284  and  _285
REMARK  108  A    between atoms: _285  and  _286
REMARK  109  A    between atoms: _295  and  _297
REMARK  110  A    between atoms: _297  and  _298
REMARK  111  A    between atoms: _297  and  _300
REMARK  112  A    between atoms: _300  and  _301
REMARK  113  A    between atoms: _301  and  _302
REMARK  114  A    between atoms: _307  and  _309
REMARK  115  A    between atoms: _309  and  _310
REMARK  116  A    between atoms: _309  and  _312
REMARK  117  A    between atoms: _312  and  _313
REMARK                            x       y       z     vdW  Elec       q    Type
REMARK                         _______ _______ _______ _____ _____    ______ ____
ROOT
ATOM      1  O   HOH     1      40.472   3.862  10.669  0.00  0.00    +0.000 OA
ENDROOT
TORSDOF 0
REMARK  Name = ../refined-set-2016/3m3e/3m3e_pocket.pdb
REMARK  117 active torsions:
REMARK  status: ('A' for Active; 'I' for Inactive)
REMARK    1  A    between atoms: _1  and  _3
REMARK    2  A    between atoms: _3  and  _4
REMARK    3  A    between atoms: _6  and  _8
REMARK    4  A    between atoms: _8  and  _9
REMARK    5  A    between atoms: _8  and  _11
REMARK    6  A    between atoms: _11  and  _12
REMARK    7  A    between atoms: _18  and  _19
REMARK    8  A    between atoms: _24  and  _26
REMARK    9  A    between atoms: _26  and  _27
REMARK   10  A    between atoms: _26  and  _29
REMARK   11  A    between atoms: _29  and  _30
REMARK   12  A    between atoms: _35  and  _37
REMARK   13  A    between atoms: _37  and  _38
REMARK   14  A    between atoms: _37  and  _40
REMARK   15  A    between atoms: _40  and  _41
REMARK   16  A    between atoms: _44  and  _46
REMARK   17  A    between atoms: _46  and  _47
REMARK   18  A    between atoms: _46  and  _49
REMARK   19  A    between atoms: _49  and  _50
REMARK   20  A    between atoms: _53  and  _55
REMARK   21  A    between atoms: _55  and  _56
REMARK   22  A    between atoms: _55  and  _58
REMARK   23  A    between atoms: _58  and  _59
REMARK   24  A    between atoms: _64  and  _66
REMARK   25  A    between atoms: _66  and  _67
REMARK   26  A    between atoms: _66  and  _69
REMARK   27  A    between atoms: _69  and  _70
REMARK   28  A    between atoms: _75  and  _76
REMARK   29  A    between atoms: _78  and  _80
REMARK   30  A    between atoms: _80  and  _81
REMARK   31  A    between atoms: _80  and  _83
REMARK   32  A    between atoms: _83  and  _84
REMARK   33  A    between atoms: _89  and  _91
REMARK   34  A    between atoms: _91  and  _92
REMARK   35  A    between atoms: _91  and  _94
REMARK   36  A    between atoms: _94  and  _95
REMARK   37  A    between atoms: _98  and  _100
REMARK   38  A    between atoms: _100  and  _101
REMARK   39  A    between atoms: _104  and  _106
REMARK   40  A    between atoms: _106  and  _107
REMARK   41  A    between atoms: _106  and  _109
REMARK   42  A    between atoms: _109  and  _110
REMARK   43  A    between atoms: _116  and  _118
REMARK   44  A    between atoms: _118  and  _119
REMARK   45  A    between atoms: _118  and  _121
REMARK   46  A    between atoms: _121  and  _122
REMARK   47  A    between atoms: _122  and  _123
REMARK   48  A    between atoms: _123  and  _124
REMARK   49  A    between atoms: _133  and  _135
REMARK   50  A    between atoms: _135  and  _136
REMARK   51  A    between atoms: _135  and  _138
REMARK   52  A    between atoms: _138  and  _139
REMARK   53  A    between atoms: _139  and  _140
REMARK   54  A    between atoms: _145  and  _147
REMARK   55  A    between atoms: _147  and  _148
REMARK   56  A    between atoms: _151  and  _153
REMARK   57  A    between atoms: _153  and  _154
REMARK   58  A    between atoms: _153  and  _156
REMARK   59  A    between atoms: _159  and  _161
REMARK   60  A    between atoms: _161  and  _162
REMARK   61  A    between atoms: _161  and  _164
REMARK   62  A    between atoms: _164  and  _165
REMARK   63  A    between atoms: _168  and  _170
REMARK   64  A    between atoms: _170  and  _171
REMARK   65  A    between atoms: _170  and  _173
REMARK   66  A    between atoms: _173  and  _174
REMARK   67  A    between atoms: _180  and  _182
REMARK   68  A    between atoms: _182  and  _183
REMARK   69  A    between atoms: _182  and  _185
REMARK   70  A    between atoms: _185  and  _186
REMARK   71  A    between atoms: _191  and  _193
REMARK   72  A    between atoms: _193  and  _194
REMARK   73  A    between atoms: _193  and  _196
REMARK   74  A    between atoms: _196  and  _197
REMARK   75  A    between atoms: _199  and  _201
REMARK   76  A    between atoms: _201  and  _202
REMARK   77  A    between atoms: _201  and  _204
REMARK   78  A    between atoms: _204  and  _205
REMARK   79  A    between atoms: _205  and  _206
REMARK   80  A    between atoms: _206  and  _207
REMARK   81  A    between atoms: _217  and  _218
REMARK   82  A    between atoms: _223  and  _225
REMARK   83  A    between atoms: _225  and  _226
REMARK   84  A    between atoms: _225  and  _228
REMARK   85  A    between atoms: _228  and  _229
REMARK   86  A    between atoms: _239  and  _241
REMARK   87  A    between atoms: _241  and  _242
REMARK   88  A    between atoms: _241  and  _244
REMARK   89  A    between atoms: _244  and  _245
REMARK   90  A    between atoms: _248  and  _250
REMARK   91  A    between atoms: _250  and  _251
REMARK   92  A    between atoms: _250  and  _253
REMARK   93  A    between atoms: _256  and  _258
REMARK   94  A    between atoms: _258  and  _259
REMARK   95  A    between atoms: _258  and  _261
REMARK   96  A    between atoms: _261  and  _262
REMARK   97  A    between atoms: _262  and  _263
REMARK   98  A    between atoms: _266  and  _268
REMARK   99  A    between atoms: _268  and  _269
REMARK  100  A    between atoms: _268  and  _271
REMARK  101  A    between atoms: _271  and  _272
REMARK  102  A    between atoms: _272  and  _273
REMARK  103  A    between atoms: _278  and  _280
REMARK  104  A    between atoms: _280  and  _281
REMARK  105  A    between atoms: _280  and  _283
REMARK  106  A    between atoms: _283  and  _284
REMARK  107  A    between atoms: _284  and  _285
REMARK  108  A    between atoms: _285  and  _286
REMARK  109  A    between atoms: _295  and  _297
REMARK  110  A    between atoms: _297  and  _298
REMARK  111  A    between atoms: _297  and  _300
REMARK  112  A    between atoms: _300  and  _301
REMARK  113  A    between atoms: _301  and  _302
REMARK  114  A    between atoms: _307  and  _309
REMARK  115  A    between atoms: _309  and  _310
REMARK  116  A    between atoms: _309  and  _312
REMARK  117  A    between atoms: _312  and  _313
REMARK                            x       y       z     vdW  Elec       q    Type
REMARK                         _______ _______ _______ _____ _____    ______ ____
ROOT
ATOM      1  O   HOH     1      42.105   6.819   6.487  0.00  0.00    +0.000 OA
ENDROOT
TORSDOF 0
REMARK  Name = ../refined-set-2016/3m3e/3m3e_pocket.pdb
REMARK  117 active torsions:
REMARK  status: ('A' for Active; 'I' for Inactive)
REMARK    1  A    between atoms: _1  and  _3
REMARK    2  A    between atoms: _3  and  _4
REMARK    3  A    between atoms: _6  and  _8
REMARK    4  A    between atoms: _8  and  _9
REMARK    5  A    between atoms: _8  and  _11
REMARK    6  A    between atoms: _11  and  _12
REMARK    7  A    between atoms: _18  and  _19
REMARK    8  A    between atoms: _24  and  _26
REMARK    9  A    between atoms: _26  and  _27
REMARK   10  A    between atoms: _26  and  _29
REMARK   11  A    between atoms: _29  and  _30
REMARK   12  A    between atoms: _35  and  _37
REMARK   13  A    between atoms: _37  and  _38
REMARK   14  A    between atoms: _37  and  _40
REMARK   15  A    between atoms: _40  and  _41
REMARK   16  A    between atoms: _44  and  _46
REMARK   17  A    between atoms: _46  and  _47
REMARK   18  A    between atoms: _46  and  _49
REMARK   19  A    between atoms: _49  and  _50
REMARK   20  A    between atoms: _53  and  _55
REMARK   21  A    between atoms: _55  and  _56
REMARK   22  A    between atoms: _55  and  _58
REMARK   23  A    between atoms: _58  and  _59
REMARK   24  A    between atoms: _64  and  _66
REMARK   25  A    between atoms: _66  and  _67
REMARK   26  A    between atoms: _66  and  _69
REMARK   27  A    between atoms: _69  and  _70
REMARK   28  A    between atoms: _75  and  _76
REMARK   29  A    between atoms: _78  and  _80
REMARK   30  A    between atoms: _80  and  _81
REMARK   31  A    between atoms: _80  and  _83
REMARK   32  A    between atoms: _83  and  _84
REMARK   33  A    between atoms: _89  and  _91
REMARK   34  A    between atoms: _91  and  _92
REMARK   35  A    between atoms: _91  and  _94
REMARK   36  A    between atoms: _94  and  _95
REMARK   37  A    between atoms: _98  and  _100
REMARK   38  A    between atoms: _100  and  _101
REMARK   39  A    between atoms: _104  and  _106
REMARK   40  A    between atoms: _106  and  _107
REMARK   41  A    between atoms: _106  and  _109
REMARK   42  A    between atoms: _109  and  _110
REMARK   43  A    between atoms: _116  and  _118
REMARK   44  A    between atoms: _118  and  _119
REMARK   45  A    between atoms: _118  and  _121
REMARK   46  A    between atoms: _121  and  _122
REMARK   47  A    between atoms: _122  and  _123
REMARK   48  A    between atoms: _123  and  _124
REMARK   49  A    between atoms: _133  and  _135
REMARK   50  A    between atoms: _135  and  _136
REMARK   51  A    between atoms: _135  and  _138
REMARK   52  A    between atoms: _138  and  _139
REMARK   53  A    between atoms: _139  and  _140
REMARK   54  A    between atoms: _145  and  _147
REMARK   55  A    between atoms: _147  and  _148
REMARK   56  A    between atoms: _151  and  _153
REMARK   57  A    between atoms: _153  and  _154
REMARK   58  A    between atoms: _153  and  _156
REMARK   59  A    between atoms: _159  and  _161
REMARK   60  A    between atoms: _161  and  _162
REMARK   61  A    between atoms: _161  and  _164
REMARK   62  A    between atoms: _164  and  _165
REMARK   63  A    between atoms: _168  and  _170
REMARK   64  A    between atoms: _170  and  _171
REMARK   65  A    between atoms: _170  and  _173
REMARK   66  A    between atoms: _173  and  _174
REMARK   67  A    between atoms: _180  and  _182
REMARK   68  A    between atoms: _182  and  _183
REMARK   69  A    between atoms: _182  and  _185
REMARK   70  A    between atoms: _185  and  _186
REMARK   71  A    between atoms: _191  and  _193
REMARK   72  A    between atoms: _193  and  _194
REMARK   73  A    between atoms: _193  and  _196
REMARK   74  A    between atoms: _196  and  _197
REMARK   75  A    between atoms: _199  and  _201
REMARK   76  A    between atoms: _201  and  _202
REMARK   77  A    between atoms: _201  and  _204
REMARK   78  A    between atoms: _204  and  _205
REMARK   79  A    between atoms: _205  and  _206
REMARK   80  A    between atoms: _206  and  _207
REMARK   81  A    between atoms: _217  and  _218
REMARK   82  A    between atoms: _223  and  _225
REMARK   83  A    between atoms: _225  and  _226
REMARK   84  A    between atoms: _225  and  _228
REMARK   85  A    between atoms: _228  and  _229
REMARK   86  A    between atoms: _239  and  _241
REMARK   87  A    between atoms: _241  and  _242
REMARK   88  A    between atoms: _241  and  _244
REMARK   89  A    between atoms: _244  and  _245
REMARK   90  A    between atoms: _248  and  _250
REMARK   91  A    between atoms: _250  and  _251
REMARK   92  A    between atoms: _250  and  _253
REMARK   93  A    between atoms: _256  and  _258
REMARK   94  A    between atoms: _258  and  _259
REMARK   95  A    between atoms: _258  and  _261
REMARK   96  A    between atoms: _261  and  _262
REMARK   97  A    between atoms: _262  and  _263
REMARK   98  A    between atoms: _266  and  _268
REMARK   99  A    between atoms: _268  and  _269
REMARK  100  A    between atoms: _268  and  _271
REMARK  101  A    between atoms: _271  and  _272
REMARK  102  A    between atoms: _272  and  _273
REMARK  103  A    between atoms: _278  and  _280
REMARK  104  A    between atoms: _280  and  _281
REMARK  105  A    between atoms: _280  and  _283
REMARK  106  A    between atoms: _283  and  _284
REMARK  107  A    between atoms: _284  and  _285
REMARK  108  A    between atoms: _285  and  _286
REMARK  109  A    between atoms: _295  and  _297
REMARK  110  A    between atoms: _297  and  _298
REMARK  111  A    between atoms: _297  and  _300
REMARK  112  A    between atoms: _300  and  _301
REMARK  113  A    between atoms: _301  and  _302
REMARK  114  A    between atoms: _307  and  _309
REMARK  115  A    between atoms: _309  and  _310
REMARK  116  A    between atoms: _309  and  _312
REMARK  117  A    between atoms: _312  and  _313
REMARK                            x       y       z     vdW  Elec       q    Type
REMARK                         _______ _______ _______ _____ _____    ______ ____
ROOT
ATOM      1  O   HOH     1      40.467   8.991  11.243  0.00  0.00    +0.000 OA
ENDROOT
TORSDOF 0
REMARK  Name = ../refined-set-2016/3m3e/3m3e_pocket.pdb
REMARK  117 active torsions:
REMARK  status: ('A' for Active; 'I' for Inactive)
REMARK    1  A    between atoms: _1  and  _3
REMARK    2  A    between atoms: _3  and  _4
REMARK    3  A    between atoms: _6  and  _8
REMARK    4  A    between atoms: _8  and  _9
REMARK    5  A    between atoms: _8  and  _11
REMARK    6  A    between atoms: _11  and  _12
REMARK    7  A    between atoms: _18  and  _19
REMARK    8  A    between atoms: _24  and  _26
REMARK    9  A    between atoms: _26  and  _27
REMARK   10  A    between atoms: _26  and  _29
REMARK   11  A    between atoms: _29  and  _30
REMARK   12  A    between atoms: _35  and  _37
REMARK   13  A    between atoms: _37  and  _38
REMARK   14  A    between atoms: _37  and  _40
REMARK   15  A    between atoms: _40  and  _41
REMARK   16  A    between atoms: _44  and  _46
REMARK   17  A    between atoms: _46  and  _47
REMARK   18  A    between atoms: _46  and  _49
REMARK   19  A    between atoms: _49  and  _50
REMARK   20  A    between atoms: _53  and  _55
REMARK   21  A    between atoms: _55  and  _56
REMARK   22  A    between atoms: _55  and  _58
REMARK   23  A    between atoms: _58  and  _59
REMARK   24  A    between atoms: _64  and  _66
REMARK   25  A    between atoms: _66  and  _67
REMARK   26  A    between atoms: _66  and  _69
REMARK   27  A    between atoms: _69  and  _70
REMARK   28  A    between atoms: _75  and  _76
REMARK   29  A    between atoms: _78  and  _80
REMARK   30  A    between atoms: _80  and  _81
REMARK   31  A    between atoms: _80  and  _83
REMARK   32  A    between atoms: _83  and  _84
REMARK   33  A    between atoms: _89  and  _91
REMARK   34  A    between atoms: _91  and  _92
REMARK   35  A    between atoms: _91  and  _94
REMARK   36  A    between atoms: _94  and  _95
REMARK   37  A    between atoms: _98  and  _100
REMARK   38  A    between atoms: _100  and  _101
REMARK   39  A    between atoms: _104  and  _106
REMARK   40  A    between atoms: _106  and  _107
REMARK   41  A    between atoms: _106  and  _109
REMARK   42  A    between atoms: _109  and  _110
REMARK   43  A    between atoms: _116  and  _118
REMARK   44  A    between atoms: _118  and  _119
REMARK   45  A    between atoms: _118  and  _121
REMARK   46  A    between atoms: _121  and  _122
REMARK   47  A    between atoms: _122  and  _123
REMARK   48  A    between atoms: _123  and  _124
REMARK   49  A    between atoms: _133  and  _135
REMARK   50  A    between atoms: _135  and  _136
REMARK   51  A    between atoms: _135  and  _138
REMARK   52  A    between atoms: _138  and  _139
REMARK   53  A    between atoms: _139  and  _140
REMARK   54  A    between atoms: _145  and  _147
REMARK   55  A    between atoms: _147  and  _148
REMARK   56  A    between atoms: _151  and  _153
REMARK   57  A    between atoms: _153  and  _154
REMARK   58  A    between atoms: _153  and  _156
REMARK   59  A    between atoms: _159  and  _161
REMARK   60  A    between atoms: _161  and  _162
REMARK   61  A    between atoms: _161  and  _164
REMARK   62  A    between atoms: _164  and  _165
REMARK   63  A    between atoms: _168  and  _170
REMARK   64  A    between atoms: _170  and  _171
REMARK   65  A    between atoms: _170  and  _173
REMARK   66  A    between atoms: _173  and  _174
REMARK   67  A    between atoms: _180  and  _182
REMARK   68  A    between atoms: _182  and  _183
REMARK   69  A    between atoms: _182  and  _185
REMARK   70  A    between atoms: _185  and  _186
REMARK   71  A    between atoms: _191  and  _193
REMARK   72  A    between atoms: _193  and  _194
REMARK   73  A    between atoms: _193  and  _196
REMARK   74  A    between atoms: _196  and  _197
REMARK   75  A    between atoms: _199  and  _201
REMARK   76  A    between atoms: _201  and  _202
REMARK   77  A    between atoms: _201  and  _204
REMARK   78  A    between atoms: _204  and  _205
REMARK   79  A    between atoms: _205  and  _206
REMARK   80  A    between atoms: _206  and  _207
REMARK   81  A    between atoms: _217  and  _218
REMARK   82  A    between atoms: _223  and  _225
REMARK   83  A    between atoms: _225  and  _226
REMARK   84  A    between atoms: _225  and  _228
REMARK   85  A    between atoms: _228  and  _229
REMARK   86  A    between atoms: _239  and  _241
REMARK   87  A    between atoms: _241  and  _242
REMARK   88  A    between atoms: _241  and  _244
REMARK   89  A    between atoms: _244  and  _245
REMARK   90  A    between atoms: _248  and  _250
REMARK   91  A    between atoms: _250  and  _251
REMARK   92  A    between atoms: _250  and  _253
REMARK   93  A    between atoms: _256  and  _258
REMARK   94  A    between atoms: _258  and  _259
REMARK   95  A    between atoms: _258  and  _261
REMARK   96  A    between atoms: _261  and  _262
REMARK   97  A    between atoms: _262  and  _263
REMARK   98  A    between atoms: _266  and  _268
REMARK   99  A    between atoms: _268  and  _269
REMARK  100  A    between atoms: _268  and  _271
REMARK  101  A    between atoms: _271  and  _272
REMARK  102  A    between atoms: _272  and  _273
REMARK  103  A    between atoms: _278  and  _280
REMARK  104  A    between atoms: _280  and  _281
REMARK  105  A    between atoms: _280  and  _283
REMARK  106  A    between atoms: _283  and  _284
REMARK  107  A    between atoms: _284  and  _285
REMARK  108  A    between atoms: _285  and  _286
REMARK  109  A    between atoms: _295  and  _297
REMARK  110  A    between atoms: _297  and  _298
REMARK  111  A    between atoms: _297  and  _300
REMARK  112  A    between atoms: _300  and  _301
REMARK  113  A    between atoms: _301  and  _302
REMARK  114  A    between atoms: _307  and  _309
REMARK  115  A    between atoms: _309  and  _310
REMARK  116  A    between atoms: _309  and  _312
REMARK  117  A    between atoms: _312  and  _313
REMARK                            x       y       z     vdW  Elec       q    Type
REMARK                         _______ _______ _______ _____ _____    ______ ____
ROOT
ATOM      1  O   HOH     1      31.375   2.299   0.793  0.00  0.00    +0.000 OA
ENDROOT
TORSDOF 0
REMARK  Name = ../refined-set-2016/3m3e/3m3e_pocket.pdb
REMARK  117 active torsions:
REMARK  status: ('A' for Active; 'I' for Inactive)
REMARK    1  A    between atoms: _1  and  _3
REMARK    2  A    between atoms: _3  and  _4
REMARK    3  A    between atoms: _6  and  _8
REMARK    4  A    between atoms: _8  and  _9
REMARK    5  A    between atoms: _8  and  _11
REMARK    6  A    between atoms: _11  and  _12
REMARK    7  A    between atoms: _18  and  _19
REMARK    8  A    between atoms: _24  and  _26
REMARK    9  A    between atoms: _26  and  _27
REMARK   10  A    between atoms: _26  and  _29
REMARK   11  A    between atoms: _29  and  _30
REMARK   12  A    between atoms: _35  and  _37
REMARK   13  A    between atoms: _37  and  _38
REMARK   14  A    between atoms: _37  and  _40
REMARK   15  A    between atoms: _40  and  _41
REMARK   16  A    between atoms: _44  and  _46
REMARK   17  A    between atoms: _46  and  _47
REMARK   18  A    between atoms: _46  and  _49
REMARK   19  A    between atoms: _49  and  _50
REMARK   20  A    between atoms: _53  and  _55
REMARK   21  A    between atoms: _55  and  _56
REMARK   22  A    between atoms: _55  and  _58
REMARK   23  A    between atoms: _58  and  _59
REMARK   24  A    between atoms: _64  and  _66
REMARK   25  A    between atoms: _66  and  _67
REMARK   26  A    between atoms: _66  and  _69
REMARK   27  A    between atoms: _69  and  _70
REMARK   28  A    between atoms: _75  and  _76
REMARK   29  A    between atoms: _78  and  _80
REMARK   30  A    between atoms: _80  and  _81
REMARK   31  A    between atoms: _80  and  _83
REMARK   32  A    between atoms: _83  and  _84
REMARK   33  A    between atoms: _89  and  _91
REMARK   34  A    between atoms: _91  and  _92
REMARK   35  A    between atoms: _91  and  _94
REMARK   36  A    between atoms: _94  and  _95
REMARK   37  A    between atoms: _98  and  _100
REMARK   38  A    between atoms: _100  and  _101
REMARK   39  A    between atoms: _104  and  _106
REMARK   40  A    between atoms: _106  and  _107
REMARK   41  A    between atoms: _106  and  _109
REMARK   42  A    between atoms: _109  and  _110
REMARK   43  A    between atoms: _116  and  _118
REMARK   44  A    between atoms: _118  and  _119
REMARK   45  A    between atoms: _118  and  _121
REMARK   46  A    between atoms: _121  and  _122
REMARK   47  A    between atoms: _122  and  _123
REMARK   48  A    between atoms: _123  and  _124
REMARK   49  A    between atoms: _133  and  _135
REMARK   50  A    between atoms: _135  and  _136
REMARK   51  A    between atoms: _135  and  _138
REMARK   52  A    between atoms: _138  and  _139
REMARK   53  A    between atoms: _139  and  _140
REMARK   54  A    between atoms: _145  and  _147
REMARK   55  A    between atoms: _147  and  _148
REMARK   56  A    between atoms: _151  and  _153
REMARK   57  A    between atoms: _153  and  _154
REMARK   58  A    between atoms: _153  and  _156
REMARK   59  A    between atoms: _159  and  _161
REMARK   60  A    between atoms: _161  and  _162
REMARK   61  A    between atoms: _161  and  _164
REMARK   62  A    between atoms: _164  and  _165
REMARK   63  A    between atoms: _168  and  _170
REMARK   64  A    between atoms: _170  and  _171
REMARK   65  A    between atoms: _170  and  _173
REMARK   66  A    between atoms: _173  and  _174
REMARK   67  A    between atoms: _180  and  _182
REMARK   68  A    between atoms: _182  and  _183
REMARK   69  A    between atoms: _182  and  _185
REMARK   70  A    between atoms: _185  and  _186
REMARK   71  A    between atoms: _191  and  _193
REMARK   72  A    between atoms: _193  and  _194
REMARK   73  A    between atoms: _193  and  _196
REMARK   74  A    between atoms: _196  and  _197
REMARK   75  A    between atoms: _199  and  _201
REMARK   76  A    between atoms: _201  and  _202
REMARK   77  A    between atoms: _201  and  _204
REMARK   78  A    between atoms: _204  and  _205
REMARK   79  A    between atoms: _205  and  _206
REMARK   80  A    between atoms: _206  and  _207
REMARK   81  A    between atoms: _217  and  _218
REMARK   82  A    between atoms: _223  and  _225
REMARK   83  A    between atoms: _225  and  _226
REMARK   84  A    between atoms: _225  and  _228
REMARK   85  A    between atoms: _228  and  _229
REMARK   86  A    between atoms: _239  and  _241
REMARK   87  A    between atoms: _241  and  _242
REMARK   88  A    between atoms: _241  and  _244
REMARK   89  A    between atoms: _244  and  _245
REMARK   90  A    between atoms: _248  and  _250
REMARK   91  A    between atoms: _250  and  _251
REMARK   92  A    between atoms: _250  and  _253
REMARK   93  A    between atoms: _256  and  _258
REMARK   94  A    between atoms: _258  and  _259
REMARK   95  A    between atoms: _258  and  _261
REMARK   96  A    between atoms: _261  and  _262
REMARK   97  A    between atoms: _262  and  _263
REMARK   98  A    between atoms: _266  and  _268
REMARK   99  A    between atoms: _268  and  _269
REMARK  100  A    between atoms: _268  and  _271
REMARK  101  A    between atoms: _271  and  _272
REMARK  102  A    between atoms: _272  and  _273
REMARK  103  A    between atoms: _278  and  _280
REMARK  104  A    between atoms: _280  and  _281
REMARK  105  A    between atoms: _280  and  _283
REMARK  106  A    between atoms: _283  and  _284
REMARK  107  A    between atoms: _284  and  _285
REMARK  108  A    between atoms: _285  and  _286
REMARK  109  A    between atoms: _295  and  _297
REMARK  110  A    between atoms: _297  and  _298
REMARK  111  A    between atoms: _297  and  _300
REMARK  112  A    between atoms: _300  and  _301
REMARK  113  A    between atoms: _301  and  _302
REMARK  114  A    between atoms: _307  and  _309
REMARK  115  A    between atoms: _309  and  _310
REMARK  116  A    between atoms: _309  and  _312
REMARK  117  A    between atoms: _312  and  _313
REMARK                            x       y       z     vdW  Elec       q    Type
REMARK                         _______ _______ _______ _____ _____    ______ ____
ROOT
ATOM      1  O   HOH     1      46.603   0.663   9.005  0.00  0.00    +0.000 OA
ENDROOT
TORSDOF 0
REMARK  Name = ../refined-set-2016/3m3e/3m3e_pocket.pdb
REMARK  117 active torsions:
REMARK  status: ('A' for Active; 'I' for Inactive)
REMARK    1  A    between atoms: _1  and  _3
REMARK    2  A    between atoms: _3  and  _4
REMARK    3  A    between atoms: _6  and  _8
REMARK    4  A    between atoms: _8  and  _9
REMARK    5  A    between atoms: _8  and  _11
REMARK    6  A    between atoms: _11  and  _12
REMARK    7  A    between atoms: _18  and  _19
REMARK    8  A    between atoms: _24  and  _26
REMARK    9  A    between atoms: _26  and  _27
REMARK   10  A    between atoms: _26  and  _29
REMARK   11  A    between atoms: _29  and  _30
REMARK   12  A    between atoms: _35  and  _37
REMARK   13  A    between atoms: _37  and  _38
REMARK   14  A    between atoms: _37  and  _40
REMARK   15  A    between atoms: _40  and  _41
REMARK   16  A    between atoms: _44  and  _46
REMARK   17  A    between atoms: _46  and  _47
REMARK   18  A    between atoms: _46  and  _49
REMARK   19  A    between atoms: _49  and  _50
REMARK   20  A    between atoms: _53  and  _55
REMARK   21  A    between atoms: _55  and  _56
REMARK   22  A    between atoms: _55  and  _58
REMARK   23  A    between atoms: _58  and  _59
REMARK   24  A    between atoms: _64  and  _66
REMARK   25  A    between atoms: _66  and  _67
REMARK   26  A    between atoms: _66  and  _69
REMARK   27  A    between atoms: _69  and  _70
REMARK   28  A    between atoms: _75  and  _76
REMARK   29  A    between atoms: _78  and  _80
REMARK   30  A    between atoms: _80  and  _81
REMARK   31  A    between atoms: _80  and  _83
REMARK   32  A    between atoms: _83  and  _84
REMARK   33  A    between atoms: _89  and  _91
REMARK   34  A    between atoms: _91  and  _92
REMARK   35  A    between atoms: _91  and  _94
REMARK   36  A    between atoms: _94  and  _95
REMARK   37  A    between atoms: _98  and  _100
REMARK   38  A    between atoms: _100  and  _101
REMARK   39  A    between atoms: _104  and  _106
REMARK   40  A    between atoms: _106  and  _107
REMARK   41  A    between atoms: _106  and  _109
REMARK   42  A    between atoms: _109  and  _110
REMARK   43  A    between atoms: _116  and  _118
REMARK   44  A    between atoms: _118  and  _119
REMARK   45  A    between atoms: _118  and  _121
REMARK   46  A    between atoms: _121  and  _122
REMARK   47  A    between atoms: _122  and  _123
REMARK   48  A    between atoms: _123  and  _124
REMARK   49  A    between atoms: _133  and  _135
REMARK   50  A    between atoms: _135  and  _136
REMARK   51  A    between atoms: _135  and  _138
REMARK   52  A    between atoms: _138  and  _139
REMARK   53  A    between atoms: _139  and  _140
REMARK   54  A    between atoms: _145  and  _147
REMARK   55  A    between atoms: _147  and  _148
REMARK   56  A    between atoms: _151  and  _153
REMARK   57  A    between atoms: _153  and  _154
REMARK   58  A    between atoms: _153  and  _156
REMARK   59  A    between atoms: _159  and  _161
REMARK   60  A    between atoms: _161  and  _162
REMARK   61  A    between atoms: _161  and  _164
REMARK   62  A    between atoms: _164  and  _165
REMARK   63  A    between atoms: _168  and  _170
REMARK   64  A    between atoms: _170  and  _171
REMARK   65  A    between atoms: _170  and  _173
REMARK   66  A    between atoms: _173  and  _174
REMARK   67  A    between atoms: _180  and  _182
REMARK   68  A    between atoms: _182  and  _183
REMARK   69  A    between atoms: _182  and  _185
REMARK   70  A    between atoms: _185  and  _186
REMARK   71  A    between atoms: _191  and  _193
REMARK   72  A    between atoms: _193  and  _194
REMARK   73  A    between atoms: _193  and  _196
REMARK   74  A    between atoms: _196  and  _197
REMARK   75  A    between atoms: _199  and  _201
REMARK   76  A    between atoms: _201  and  _202
REMARK   77  A    between atoms: _201  and  _204
REMARK   78  A    between atoms: _204  and  _205
REMARK   79  A    between atoms: _205  and  _206
REMARK   80  A    between atoms: _206  and  _207
REMARK   81  A    between atoms: _217  and  _218
REMARK   82  A    between atoms: _223  and  _225
REMARK   83  A    between atoms: _225  and  _226
REMARK   84  A    between atoms: _225  and  _228
REMARK   85  A    between atoms: _228  and  _229
REMARK   86  A    between atoms: _239  and  _241
REMARK   87  A    between atoms: _241  and  _242
REMARK   88  A    between atoms: _241  and  _244
REMARK   89  A    between atoms: _244  and  _245
REMARK   90  A    between atoms: _248  and  _250
REMARK   91  A    between atoms: _250  and  _251
REMARK   92  A    between atoms: _250  and  _253
REMARK   93  A    between atoms: _256  and  _258
REMARK   94  A    between atoms: _258  and  _259
REMARK   95  A    between atoms: _258  and  _261
REMARK   96  A    between atoms: _261  and  _262
REMARK   97  A    between atoms: _262  and  _263
REMARK   98  A    between atoms: _266  and  _268
REMARK   99  A    between atoms: _268  and  _269
REMARK  100  A    between atoms: _268  and  _271
REMARK  101  A    between atoms: _271  and  _272
REMARK  102  A    between atoms: _272  and  _273
REMARK  103  A    between atoms: _278  and  _280
REMARK  104  A    between atoms: _280  and  _281
REMARK  105  A    between atoms: _280  and  _283
REMARK  106  A    between atoms: _283  and  _284
REMARK  107  A    between atoms: _284  and  _285
REMARK  108  A    between atoms: _285  and  _286
REMARK  109  A    between atoms: _295  and  _297
REMARK  110  A    between atoms: _297  and  _298
REMARK  111  A    between atoms: _297  and  _300
REMARK  112  A    between atoms: _300  and  _301
REMARK  113  A    between atoms: _301  and  _302
REMARK  114  A    between atoms: _307  and  _309
REMARK  115  A    between atoms: _309  and  _310
REMARK  116  A    between atoms: _309  and  _312
REMARK  117  A    between atoms: _312  and  _313
REMARK                            x       y       z     vdW  Elec       q    Type
REMARK                         _______ _______ _______ _____ _____    ______ ____
ROOT
ATOM      1  O   HOH     1      42.916  -0.224   0.305  0.00  0.00    +0.000 OA
ENDROOT
TORSDOF 0
REMARK  Name = ../refined-set-2016/3m3e/3m3e_pocket.pdb
REMARK  117 active torsions:
REMARK  status: ('A' for Active; 'I' for Inactive)
REMARK    1  A    between atoms: _1  and  _3
REMARK    2  A    between atoms: _3  and  _4
REMARK    3  A    between atoms: _6  and  _8
REMARK    4  A    between atoms: _8  and  _9
REMARK    5  A    between atoms: _8  and  _11
REMARK    6  A    between atoms: _11  and  _12
REMARK    7  A    between atoms: _18  and  _19
REMARK    8  A    between atoms: _24  and  _26
REMARK    9  A    between atoms: _26  and  _27
REMARK   10  A    between atoms: _26  and  _29
REMARK   11  A    between atoms: _29  and  _30
REMARK   12  A    between atoms: _35  and  _37
REMARK   13  A    between atoms: _37  and  _38
REMARK   14  A    between atoms: _37  and  _40
REMARK   15  A    between atoms: _40  and  _41
REMARK   16  A    between atoms: _44  and  _46
REMARK   17  A    between atoms: _46  and  _47
REMARK   18  A    between atoms: _46  and  _49
REMARK   19  A    between atoms: _49  and  _50
REMARK   20  A    between atoms: _53  and  _55
REMARK   21  A    between atoms: _55  and  _56
REMARK   22  A    between atoms: _55  and  _58
REMARK   23  A    between atoms: _58  and  _59
REMARK   24  A    between atoms: _64  and  _66
REMARK   25  A    between atoms: _66  and  _67
REMARK   26  A    between atoms: _66  and  _69
REMARK   27  A    between atoms: _69  and  _70
REMARK   28  A    between atoms: _75  and  _76
REMARK   29  A    between atoms: _78  and  _80
REMARK   30  A    between atoms: _80  and  _81
REMARK   31  A    between atoms: _80  and  _83
REMARK   32  A    between atoms: _83  and  _84
REMARK   33  A    between atoms: _89  and  _91
REMARK   34  A    between atoms: _91  and  _92
REMARK   35  A    between atoms: _91  and  _94
REMARK   36  A    between atoms: _94  and  _95
REMARK   37  A    between atoms: _98  and  _100
REMARK   38  A    between atoms: _100  and  _101
REMARK   39  A    between atoms: _104  and  _106
REMARK   40  A    between atoms: _106  and  _107
REMARK   41  A    between atoms: _106  and  _109
REMARK   42  A    between atoms: _109  and  _110
REMARK   43  A    between atoms: _116  and  _118
REMARK   44  A    between atoms: _118  and  _119
REMARK   45  A    between atoms: _118  and  _121
REMARK   46  A    between atoms: _121  and  _122
REMARK   47  A    between atoms: _122  and  _123
REMARK   48  A    between atoms: _123  and  _124
REMARK   49  A    between atoms: _133  and  _135
REMARK   50  A    between atoms: _135  and  _136
REMARK   51  A    between atoms: _135  and  _138
REMARK   52  A    between atoms: _138  and  _139
REMARK   53  A    between atoms: _139  and  _140
REMARK   54  A    between atoms: _145  and  _147
REMARK   55  A    between atoms: _147  and  _148
REMARK   56  A    between atoms: _151  and  _153
REMARK   57  A    between atoms: _153  and  _154
REMARK   58  A    between atoms: _153  and  _156
REMARK   59  A    between atoms: _159  and  _161
REMARK   60  A    between atoms: _161  and  _162
REMARK   61  A    between atoms: _161  and  _164
REMARK   62  A    between atoms: _164  and  _165
REMARK   63  A    between atoms: _168  and  _170
REMARK   64  A    between atoms: _170  and  _171
REMARK   65  A    between atoms: _170  and  _173
REMARK   66  A    between atoms: _173  and  _174
REMARK   67  A    between atoms: _180  and  _182
REMARK   68  A    between atoms: _182  and  _183
REMARK   69  A    between atoms: _182  and  _185
REMARK   70  A    between atoms: _185  and  _186
REMARK   71  A    between atoms: _191  and  _193
REMARK   72  A    between atoms: _193  and  _194
REMARK   73  A    between atoms: _193  and  _196
REMARK   74  A    between atoms: _196  and  _197
REMARK   75  A    between atoms: _199  and  _201
REMARK   76  A    between atoms: _201  and  _202
REMARK   77  A    between atoms: _201  and  _204
REMARK   78  A    between atoms: _204  and  _205
REMARK   79  A    between atoms: _205  and  _206
REMARK   80  A    between atoms: _206  and  _207
REMARK   81  A    between atoms: _217  and  _218
REMARK   82  A    between atoms: _223  and  _225
REMARK   83  A    between atoms: _225  and  _226
REMARK   84  A    between atoms: _225  and  _228
REMARK   85  A    between atoms: _228  and  _229
REMARK   86  A    between atoms: _239  and  _241
REMARK   87  A    between atoms: _241  and  _242
REMARK   88  A    between atoms: _241  and  _244
REMARK   89  A    between atoms: _244  and  _245
REMARK   90  A    between atoms: _248  and  _250
REMARK   91  A    between atoms: _250  and  _251
REMARK   92  A    between atoms: _250  and  _253
REMARK   93  A    between atoms: _256  and  _258
REMARK   94  A    between atoms: _258  and  _259
REMARK   95  A    between atoms: _258  and  _261
REMARK   96  A    between atoms: _261  and  _262
REMARK   97  A    between atoms: _262  and  _263
REMARK   98  A    between atoms: _266  and  _268
REMARK   99  A    between atoms: _268  and  _269
REMARK  100  A    between atoms: _268  and  _271
REMARK  101  A    between atoms: _271  and  _272
REMARK  102  A    between atoms: _272  and  _273
REMARK  103  A    between atoms: _278  and  _280
REMARK  104  A    between atoms: _280  and  _281
REMARK  105  A    between atoms: _280  and  _283
REMARK  106  A    between atoms: _283  and  _284
REMARK  107  A    between atoms: _284  and  _285
REMARK  108  A    between atoms: _285  and  _286
REMARK  109  A    between atoms: _295  and  _297
REMARK  110  A    between atoms: _297  and  _298
REMARK  111  A    between atoms: _297  and  _300
REMARK  112  A    between atoms: _300  and  _301
REMARK  113  A    between atoms: _301  and  _302
REMARK  114  A    between atoms: _307  and  _309
REMARK  115  A    between atoms: _309  and  _310
REMARK  116  A    between atoms: _309  and  _312
REMARK  117  A    between atoms: _312  and  _313
REMARK                            x       y       z     vdW  Elec       q    Type
REMARK                         _______ _______ _______ _____ _____    ______ ____
ROOT
ATOM      1  O   HOH     1      35.710   5.864   2.712  0.00  0.00    +0.000 OA
ENDROOT
TORSDOF 0
REMARK  Name = ../refined-set-2016/3m3e/3m3e_pocket.pdb
REMARK  117 active torsions:
REMARK  status: ('A' for Active; 'I' for Inactive)
REMARK    1  A    between atoms: _1  and  _3
REMARK    2  A    between atoms: _3  and  _4
REMARK    3  A    between atoms: _6  and  _8
REMARK    4  A    between atoms: _8  and  _9
REMARK    5  A    between atoms: _8  and  _11
REMARK    6  A    between atoms: _11  and  _12
REMARK    7  A    between atoms: _18  and  _19
REMARK    8  A    between atoms: _24  and  _26
REMARK    9  A    between atoms: _26  and  _27
REMARK   10  A    between atoms: _26  and  _29
REMARK   11  A    between atoms: _29  and  _30
REMARK   12  A    between atoms: _35  and  _37
REMARK   13  A    between atoms: _37  and  _38
REMARK   14  A    between atoms: _37  and  _40
REMARK   15  A    between atoms: _40  and  _41
REMARK   16  A    between atoms: _44  and  _46
REMARK   17  A    between atoms: _46  and  _47
REMARK   18  A    between atoms: _46  and  _49
REMARK   19  A    between atoms: _49  and  _50
REMARK   20  A    between atoms: _53  and  _55
REMARK   21  A    between atoms: _55  and  _56
REMARK   22  A    between atoms: _55  and  _58
REMARK   23  A    between atoms: _58  and  _59
REMARK   24  A    between atoms: _64  and  _66
REMARK   25  A    between atoms: _66  and  _67
REMARK   26  A    between atoms: _66  and  _69
REMARK   27  A    between atoms: _69  and  _70
REMARK   28  A    between atoms: _75  and  _76
REMARK   29  A    between atoms: _78  and  _80
REMARK   30  A    between atoms: _80  and  _81
REMARK   31  A    between atoms: _80  and  _83
REMARK   32  A    between atoms: _83  and  _84
REMARK   33  A    between atoms: _89  and  _91
REMARK   34  A    between atoms: _91  and  _92
REMARK   35  A    between atoms: _91  and  _94
REMARK   36  A    between atoms: _94  and  _95
REMARK   37  A    between atoms: _98  and  _100
REMARK   38  A    between atoms: _100  and  _101
REMARK   39  A    between atoms: _104  and  _106
REMARK   40  A    between atoms: _106  and  _107
REMARK   41  A    between atoms: _106  and  _109
REMARK   42  A    between atoms: _109  and  _110
REMARK   43  A    between atoms: _116  and  _118
REMARK   44  A    between atoms: _118  and  _119
REMARK   45  A    between atoms: _118  and  _121
REMARK   46  A    between atoms: _121  and  _122
REMARK   47  A    between atoms: _122  and  _123
REMARK   48  A    between atoms: _123  and  _124
REMARK   49  A    between atoms: _133  and  _135
REMARK   50  A    between atoms: _135  and  _136
REMARK   51  A    between atoms: _135  and  _138
REMARK   52  A    between atoms: _138  and  _139
REMARK   53  A    between atoms: _139  and  _140
REMARK   54  A    between atoms: _145  and  _147
REMARK   55  A    between atoms: _147  and  _148
REMARK   56  A    between atoms: _151  and  _153
REMARK   57  A    between atoms: _153  and  _154
REMARK   58  A    between atoms: _153  and  _156
REMARK   59  A    between atoms: _159  and  _161
REMARK   60  A    between atoms: _161  and  _162
REMARK   61  A    between atoms: _161  and  _164
REMARK   62  A    between atoms: _164  and  _165
REMARK   63  A    between atoms: _168  and  _170
REMARK   64  A    between atoms: _170  and  _171
REMARK   65  A    between atoms: _170  and  _173
REMARK   66  A    between atoms: _173  and  _174
REMARK   67  A    between atoms: _180  and  _182
REMARK   68  A    between atoms: _182  and  _183
REMARK   69  A    between atoms: _182  and  _185
REMARK   70  A    between atoms: _185  and  _186
REMARK   71  A    between atoms: _191  and  _193
REMARK   72  A    between atoms: _193  and  _194
REMARK   73  A    between atoms: _193  and  _196
REMARK   74  A    between atoms: _196  and  _197
REMARK   75  A    between atoms: _199  and  _201
REMARK   76  A    between atoms: _201  and  _202
REMARK   77  A    between atoms: _201  and  _204
REMARK   78  A    between atoms: _204  and  _205
REMARK   79  A    between atoms: _205  and  _206
REMARK   80  A    between atoms: _206  and  _207
REMARK   81  A    between atoms: _217  and  _218
REMARK   82  A    between atoms: _223  and  _225
REMARK   83  A    between atoms: _225  and  _226
REMARK   84  A    between atoms: _225  and  _228
REMARK   85  A    between atoms: _228  and  _229
REMARK   86  A    between atoms: _239  and  _241
REMARK   87  A    between atoms: _241  and  _242
REMARK   88  A    between atoms: _241  and  _244
REMARK   89  A    between atoms: _244  and  _245
REMARK   90  A    between atoms: _248  and  _250
REMARK   91  A    between atoms: _250  and  _251
REMARK   92  A    between atoms: _250  and  _253
REMARK   93  A    between atoms: _256  and  _258
REMARK   94  A    between atoms: _258  and  _259
REMARK   95  A    between atoms: _258  and  _261
REMARK   96  A    between atoms: _261  and  _262
REMARK   97  A    between atoms: _262  and  _263
REMARK   98  A    between atoms: _266  and  _268
REMARK   99  A    between atoms: _268  and  _269
REMARK  100  A    between atoms: _268  and  _271
REMARK  101  A    between atoms: _271  and  _272
REMARK  102  A    between atoms: _272  and  _273
REMARK  103  A    between atoms: _278  and  _280
REMARK  104  A    between atoms: _280  and  _281
REMARK  105  A    between atoms: _280  and  _283
REMARK  106  A    between atoms: _283  and  _284
REMARK  107  A    between atoms: _284  and  _285
REMARK  108  A    between atoms: _285  and  _286
REMARK  109  A    between atoms: _295  and  _297
REMARK  110  A    between atoms: _297  and  _298
REMARK  111  A    between atoms: _297  and  _300
REMARK  112  A    between atoms: _300  and  _301
REMARK  113  A    between atoms: _301  and  _302
REMARK  114  A    between atoms: _307  and  _309
REMARK  115  A    between atoms: _309  and  _310
REMARK  116  A    between atoms: _309  and  _312
REMARK  117  A    between atoms: _312  and  _313
REMARK                            x       y       z     vdW  Elec       q    Type
REMARK                         _______ _______ _______ _____ _____    ______ ____
ROOT
ATOM      1  O   HOH     1      41.963   5.867   9.548  0.00  0.00    +0.000 OA
ENDROOT
TORSDOF 0
REMARK  Name = ../refined-set-2016/3m3e/3m3e_pocket.pdb
REMARK  117 active torsions:
REMARK  status: ('A' for Active; 'I' for Inactive)
REMARK    1  A    between atoms: _1  and  _3
REMARK    2  A    between atoms: _3  and  _4
REMARK    3  A    between atoms: _6  and  _8
REMARK    4  A    between atoms: _8  and  _9
REMARK    5  A    between atoms: _8  and  _11
REMARK    6  A    between atoms: _11  and  _12
REMARK    7  A    between atoms: _18  and  _19
REMARK    8  A    between atoms: _24  and  _26
REMARK    9  A    between atoms: _26  and  _27
REMARK   10  A    between atoms: _26  and  _29
REMARK   11  A    between atoms: _29  and  _30
REMARK   12  A    between atoms: _35  and  _37
REMARK   13  A    between atoms: _37  and  _38
REMARK   14  A    between atoms: _37  and  _40
REMARK   15  A    between atoms: _40  and  _41
REMARK   16  A    between atoms: _44  and  _46
REMARK   17  A    between atoms: _46  and  _47
REMARK   18  A    between atoms: _46  and  _49
REMARK   19  A    between atoms: _49  and  _50
REMARK   20  A    between atoms: _53  and  _55
REMARK   21  A    between atoms: _55  and  _56
REMARK   22  A    between atoms: _55  and  _58
REMARK   23  A    between atoms: _58  and  _59
REMARK   24  A    between atoms: _64  and  _66
REMARK   25  A    between atoms: _66  and  _67
REMARK   26  A    between atoms: _66  and  _69
REMARK   27  A    between atoms: _69  and  _70
REMARK   28  A    between atoms: _75  and  _76
REMARK   29  A    between atoms: _78  and  _80
REMARK   30  A    between atoms: _80  and  _81
REMARK   31  A    between atoms: _80  and  _83
REMARK   32  A    between atoms: _83  and  _84
REMARK   33  A    between atoms: _89  and  _91
REMARK   34  A    between atoms: _91  and  _92
REMARK   35  A    between atoms: _91  and  _94
REMARK   36  A    between atoms: _94  and  _95
REMARK   37  A    between atoms: _98  and  _100
REMARK   38  A    between atoms: _100  and  _101
REMARK   39  A    between atoms: _104  and  _106
REMARK   40  A    between atoms: _106  and  _107
REMARK   41  A    between atoms: _106  and  _109
REMARK   42  A    between atoms: _109  and  _110
REMARK   43  A    between atoms: _116  and  _118
REMARK   44  A    between atoms: _118  and  _119
REMARK   45  A    between atoms: _118  and  _121
REMARK   46  A    between atoms: _121  and  _122
REMARK   47  A    between atoms: _122  and  _123
REMARK   48  A    between atoms: _123  and  _124
REMARK   49  A    between atoms: _133  and  _135
REMARK   50  A    between atoms: _135  and  _136
REMARK   51  A    between atoms: _135  and  _138
REMARK   52  A    between atoms: _138  and  _139
REMARK   53  A    between atoms: _139  and  _140
REMARK   54  A    between atoms: _145  and  _147
REMARK   55  A    between atoms: _147  and  _148
REMARK   56  A    between atoms: _151  and  _153
REMARK   57  A    between atoms: _153  and  _154
REMARK   58  A    between atoms: _153  and  _156
REMARK   59  A    between atoms: _159  and  _161
REMARK   60  A    between atoms: _161  and  _162
REMARK   61  A    between atoms: _161  and  _164
REMARK   62  A    between atoms: _164  and  _165
REMARK   63  A    between atoms: _168  and  _170
REMARK   64  A    between atoms: _170  and  _171
REMARK   65  A    between atoms: _170  and  _173
REMARK   66  A    between atoms: _173  and  _174
REMARK   67  A    between atoms: _180  and  _182
REMARK   68  A    between atoms: _182  and  _183
REMARK   69  A    between atoms: _182  and  _185
REMARK   70  A    between atoms: _185  and  _186
REMARK   71  A    between atoms: _191  and  _193
REMARK   72  A    between atoms: _193  and  _194
REMARK   73  A    between atoms: _193  and  _196
REMARK   74  A    between atoms: _196  and  _197
REMARK   75  A    between atoms: _199  and  _201
REMARK   76  A    between atoms: _201  and  _202
REMARK   77  A    between atoms: _201  and  _204
REMARK   78  A    between atoms: _204  and  _205
REMARK   79  A    between atoms: _205  and  _206
REMARK   80  A    between atoms: _206  and  _207
REMARK   81  A    between atoms: _217  and  _218
REMARK   82  A    between atoms: _223  and  _225
REMARK   83  A    between atoms: _225  and  _226
REMARK   84  A    between atoms: _225  and  _228
REMARK   85  A    between atoms: _228  and  _229
REMARK   86  A    between atoms: _239  and  _241
REMARK   87  A    between atoms: _241  and  _242
REMARK   88  A    between atoms: _241  and  _244
REMARK   89  A    between atoms: _244  and  _245
REMARK   90  A    between atoms: _248  and  _250
REMARK   91  A    between atoms: _250  and  _251
REMARK   92  A    between atoms: _250  and  _253
REMARK   93  A    between atoms: _256  and  _258
REMARK   94  A    between atoms: _258  and  _259
REMARK   95  A    between atoms: _258  and  _261
REMARK   96  A    between atoms: _261  and  _262
REMARK   97  A    between atoms: _262  and  _263
REMARK   98  A    between atoms: _266  and  _268
REMARK   99  A    between atoms: _268  and  _269
REMARK  100  A    between atoms: _268  and  _271
REMARK  101  A    between atoms: _271  and  _272
REMARK  102  A    between atoms: _272  and  _273
REMARK  103  A    between atoms: _278  and  _280
REMARK  104  A    between atoms: _280  and  _281
REMARK  105  A    between atoms: _280  and  _283
REMARK  106  A    between atoms: _283  and  _284
REMARK  107  A    between atoms: _284  and  _285
REMARK  108  A    between atoms: _285  and  _286
REMARK  109  A    between atoms: _295  and  _297
REMARK  110  A    between atoms: _297  and  _298
REMARK  111  A    between atoms: _297  and  _300
REMARK  112  A    between atoms: _300  and  _301
REMARK  113  A    between atoms: _301  and  _302
REMARK  114  A    between atoms: _307  and  _309
REMARK  115  A    between atoms: _309  and  _310
REMARK  116  A    between atoms: _309  and  _312
REMARK  117  A    between atoms: _312  and  _313
REMARK                            x       y       z     vdW  Elec       q    Type
REMARK                         _______ _______ _______ _____ _____    ______ ____
ROOT
ATOM      1  O   HOH     1      33.006   2.911  -1.133  0.00  0.00    +0.000 OA
ENDROOT
TORSDOF 0
REMARK  Name = ../refined-set-2016/3m3e/3m3e_pocket.pdb
REMARK  117 active torsions:
REMARK  status: ('A' for Active; 'I' for Inactive)
REMARK    1  A    between atoms: _1  and  _3
REMARK    2  A    between atoms: _3  and  _4
REMARK    3  A    between atoms: _6  and  _8
REMARK    4  A    between atoms: _8  and  _9
REMARK    5  A    between atoms: _8  and  _11
REMARK    6  A    between atoms: _11  and  _12
REMARK    7  A    between atoms: _18  and  _19
REMARK    8  A    between atoms: _24  and  _26
REMARK    9  A    between atoms: _26  and  _27
REMARK   10  A    between atoms: _26  and  _29
REMARK   11  A    between atoms: _29  and  _30
REMARK   12  A    between atoms: _35  and  _37
REMARK   13  A    between atoms: _37  and  _38
REMARK   14  A    between atoms: _37  and  _40
REMARK   15  A    between atoms: _40  and  _41
REMARK   16  A    between atoms: _44  and  _46
REMARK   17  A    between atoms: _46  and  _47
REMARK   18  A    between atoms: _46  and  _49
REMARK   19  A    between atoms: _49  and  _50
REMARK   20  A    between atoms: _53  and  _55
REMARK   21  A    between atoms: _55  and  _56
REMARK   22  A    between atoms: _55  and  _58
REMARK   23  A    between atoms: _58  and  _59
REMARK   24  A    between atoms: _64  and  _66
REMARK   25  A    between atoms: _66  and  _67
REMARK   26  A    between atoms: _66  and  _69
REMARK   27  A    between atoms: _69  and  _70
REMARK   28  A    between atoms: _75  and  _76
REMARK   29  A    between atoms: _78  and  _80
REMARK   30  A    between atoms: _80  and  _81
REMARK   31  A    between atoms: _80  and  _83
REMARK   32  A    between atoms: _83  and  _84
REMARK   33  A    between atoms: _89  and  _91
REMARK   34  A    between atoms: _91  and  _92
REMARK   35  A    between atoms: _91  and  _94
REMARK   36  A    between atoms: _94  and  _95
REMARK   37  A    between atoms: _98  and  _100
REMARK   38  A    between atoms: _100  and  _101
REMARK   39  A    between atoms: _104  and  _106
REMARK   40  A    between atoms: _106  and  _107
REMARK   41  A    between atoms: _106  and  _109
REMARK   42  A    between atoms: _109  and  _110
REMARK   43  A    between atoms: _116  and  _118
REMARK   44  A    between atoms: _118  and  _119
REMARK   45  A    between atoms: _118  and  _121
REMARK   46  A    between atoms: _121  and  _122
REMARK   47  A    between atoms: _122  and  _123
REMARK   48  A    between atoms: _123  and  _124
REMARK   49  A    between atoms: _133  and  _135
REMARK   50  A    between atoms: _135  and  _136
REMARK   51  A    between atoms: _135  and  _138
REMARK   52  A    between atoms: _138  and  _139
REMARK   53  A    between atoms: _139  and  _140
REMARK   54  A    between atoms: _145  and  _147
REMARK   55  A    between atoms: _147  and  _148
REMARK   56  A    between atoms: _151  and  _153
REMARK   57  A    between atoms: _153  and  _154
REMARK   58  A    between atoms: _153  and  _156
REMARK   59  A    between atoms: _159  and  _161
REMARK   60  A    between atoms: _161  and  _162
REMARK   61  A    between atoms: _161  and  _164
REMARK   62  A    between atoms: _164  and  _165
REMARK   63  A    between atoms: _168  and  _170
REMARK   64  A    between atoms: _170  and  _171
REMARK   65  A    between atoms: _170  and  _173
REMARK   66  A    between atoms: _173  and  _174
REMARK   67  A    between atoms: _180  and  _182
REMARK   68  A    between atoms: _182  and  _183
REMARK   69  A    between atoms: _182  and  _185
REMARK   70  A    between atoms: _185  and  _186
REMARK   71  A    between atoms: _191  and  _193
REMARK   72  A    between atoms: _193  and  _194
REMARK   73  A    between atoms: _193  and  _196
REMARK   74  A    between atoms: _196  and  _197
REMARK   75  A    between atoms: _199  and  _201
REMARK   76  A    between atoms: _201  and  _202
REMARK   77  A    between atoms: _201  and  _204
REMARK   78  A    between atoms: _204  and  _205
REMARK   79  A    between atoms: _205  and  _206
REMARK   80  A    between atoms: _206  and  _207
REMARK   81  A    between atoms: _217  and  _218
REMARK   82  A    between atoms: _223  and  _225
REMARK   83  A    between atoms: _225  and  _226
REMARK   84  A    between atoms: _225  and  _228
REMARK   85  A    between atoms: _228  and  _229
REMARK   86  A    between atoms: _239  and  _241
REMARK   87  A    between atoms: _241  and  _242
REMARK   88  A    between atoms: _241  and  _244
REMARK   89  A    between atoms: _244  and  _245
REMARK   90  A    between atoms: _248  and  _250
REMARK   91  A    between atoms: _250  and  _251
REMARK   92  A    between atoms: _250  and  _253
REMARK   93  A    between atoms: _256  and  _258
REMARK   94  A    between atoms: _258  and  _259
REMARK   95  A    between atoms: _258  and  _261
REMARK   96  A    between atoms: _261  and  _262
REMARK   97  A    between atoms: _262  and  _263
REMARK   98  A    between atoms: _266  and  _268
REMARK   99  A    between atoms: _268  and  _269
REMARK  100  A    between atoms: _268  and  _271
REMARK  101  A    between atoms: _271  and  _272
REMARK  102  A    between atoms: _272  and  _273
REMARK  103  A    between atoms: _278  and  _280
REMARK  104  A    between atoms: _280  and  _281
REMARK  105  A    between atoms: _280  and  _283
REMARK  106  A    between atoms: _283  and  _284
REMARK  107  A    between atoms: _284  and  _285
REMARK  108  A    between atoms: _285  and  _286
REMARK  109  A    between atoms: _295  and  _297
REMARK  110  A    between atoms: _297  and  _298
REMARK  111  A    between atoms: _297  and  _300
REMARK  112  A    between atoms: _300  and  _301
REMARK  113  A    between atoms: _301  and  _302
REMARK  114  A    between atoms: _307  and  _309
REMARK  115  A    between atoms: _309  and  _310
REMARK  116  A    between atoms: _309  and  _312
REMARK  117  A    between atoms: _312  and  _313
REMARK                            x       y       z     vdW  Elec       q    Type
REMARK                         _______ _______ _______ _____ _____    ______ ____
ROOT
ATOM      1  O   HOH     1      42.359   6.952  13.123  0.00  0.00    +0.000 OA
ENDROOT
TORSDOF 0
REMARK  Name = ../refined-set-2016/3m3e/3m3e_pocket.pdb
REMARK  117 active torsions:
REMARK  status: ('A' for Active; 'I' for Inactive)
REMARK    1  A    between atoms: _1  and  _3
REMARK    2  A    between atoms: _3  and  _4
REMARK    3  A    between atoms: _6  and  _8
REMARK    4  A    between atoms: _8  and  _9
REMARK    5  A    between atoms: _8  and  _11
REMARK    6  A    between atoms: _11  and  _12
REMARK    7  A    between atoms: _18  and  _19
REMARK    8  A    between atoms: _24  and  _26
REMARK    9  A    between atoms: _26  and  _27
REMARK   10  A    between atoms: _26  and  _29
REMARK   11  A    between atoms: _29  and  _30
REMARK   12  A    between atoms: _35  and  _37
REMARK   13  A    between atoms: _37  and  _38
REMARK   14  A    between atoms: _37  and  _40
REMARK   15  A    between atoms: _40  and  _41
REMARK   16  A    between atoms: _44  and  _46
REMARK   17  A    between atoms: _46  and  _47
REMARK   18  A    between atoms: _46  and  _49
REMARK   19  A    between atoms: _49  and  _50
REMARK   20  A    between atoms: _53  and  _55
REMARK   21  A    between atoms: _55  and  _56
REMARK   22  A    between atoms: _55  and  _58
REMARK   23  A    between atoms: _58  and  _59
REMARK   24  A    between atoms: _64  and  _66
REMARK   25  A    between atoms: _66  and  _67
REMARK   26  A    between atoms: _66  and  _69
REMARK   27  A    between atoms: _69  and  _70
REMARK   28  A    between atoms: _75  and  _76
REMARK   29  A    between atoms: _78  and  _80
REMARK   30  A    between atoms: _80  and  _81
REMARK   31  A    between atoms: _80  and  _83
REMARK   32  A    between atoms: _83  and  _84
REMARK   33  A    between atoms: _89  and  _91
REMARK   34  A    between atoms: _91  and  _92
REMARK   35  A    between atoms: _91  and  _94
REMARK   36  A    between atoms: _94  and  _95
REMARK   37  A    between atoms: _98  and  _100
REMARK   38  A    between atoms: _100  and  _101
REMARK   39  A    between atoms: _104  and  _106
REMARK   40  A    between atoms: _106  and  _107
REMARK   41  A    between atoms: _106  and  _109
REMARK   42  A    between atoms: _109  and  _110
REMARK   43  A    between atoms: _116  and  _118
REMARK   44  A    between atoms: _118  and  _119
REMARK   45  A    between atoms: _118  and  _121
REMARK   46  A    between atoms: _121  and  _122
REMARK   47  A    between atoms: _122  and  _123
REMARK   48  A    between atoms: _123  and  _124
REMARK   49  A    between atoms: _133  and  _135
REMARK   50  A    between atoms: _135  and  _136
REMARK   51  A    between atoms: _135  and  _138
REMARK   52  A    between atoms: _138  and  _139
REMARK   53  A    between atoms: _139  and  _140
REMARK   54  A    between atoms: _145  and  _147
REMARK   55  A    between atoms: _147  and  _148
REMARK   56  A    between atoms: _151  and  _153
REMARK   57  A    between atoms: _153  and  _154
REMARK   58  A    between atoms: _153  and  _156
REMARK   59  A    between atoms: _159  and  _161
REMARK   60  A    between atoms: _161  and  _162
REMARK   61  A    between atoms: _161  and  _164
REMARK   62  A    between atoms: _164  and  _165
REMARK   63  A    between atoms: _168  and  _170
REMARK   64  A    between atoms: _170  and  _171
REMARK   65  A    between atoms: _170  and  _173
REMARK   66  A    between atoms: _173  and  _174
REMARK   67  A    between atoms: _180  and  _182
REMARK   68  A    between atoms: _182  and  _183
REMARK   69  A    between atoms: _182  and  _185
REMARK   70  A    between atoms: _185  and  _186
REMARK   71  A    between atoms: _191  and  _193
REMARK   72  A    between atoms: _193  and  _194
REMARK   73  A    between atoms: _193  and  _196
REMARK   74  A    between atoms: _196  and  _197
REMARK   75  A    between atoms: _199  and  _201
REMARK   76  A    between atoms: _201  and  _202
REMARK   77  A    between atoms: _201  and  _204
REMARK   78  A    between atoms: _204  and  _205
REMARK   79  A    between atoms: _205  and  _206
REMARK   80  A    between atoms: _206  and  _207
REMARK   81  A    between atoms: _217  and  _218
REMARK   82  A    between atoms: _223  and  _225
REMARK   83  A    between atoms: _225  and  _226
REMARK   84  A    between atoms: _225  and  _228
REMARK   85  A    between atoms: _228  and  _229
REMARK   86  A    between atoms: _239  and  _241
REMARK   87  A    between atoms: _241  and  _242
REMARK   88  A    between atoms: _241  and  _244
REMARK   89  A    between atoms: _244  and  _245
REMARK   90  A    between atoms: _248  and  _250
REMARK   91  A    between atoms: _250  and  _251
REMARK   92  A    between atoms: _250  and  _253
REMARK   93  A    between atoms: _256  and  _258
REMARK   94  A    between atoms: _258  and  _259
REMARK   95  A    between atoms: _258  and  _261
REMARK   96  A    between atoms: _261  and  _262
REMARK   97  A    between atoms: _262  and  _263
REMARK   98  A    between atoms: _266  and  _268
REMARK   99  A    between atoms: _268  and  _269
REMARK  100  A    between atoms: _268  and  _271
REMARK  101  A    between atoms: _271  and  _272
REMARK  102  A    between atoms: _272  and  _273
REMARK  103  A    between atoms: _278  and  _280
REMARK  104  A    between atoms: _280  and  _281
REMARK  105  A    between atoms: _280  and  _283
REMARK  106  A    between atoms: _283  and  _284
REMARK  107  A    between atoms: _284  and  _285
REMARK  108  A    between atoms: _285  and  _286
REMARK  109  A    between atoms: _295  and  _297
REMARK  110  A    between atoms: _297  and  _298
REMARK  111  A    between atoms: _297  and  _300
REMARK  112  A    between atoms: _300  and  _301
REMARK  113  A    between atoms: _301  and  _302
REMARK  114  A    between atoms: _307  and  _309
REMARK  115  A    between atoms: _309  and  _310
REMARK  116  A    between atoms: _309  and  _312
REMARK  117  A    between atoms: _312  and  _313
REMARK                            x       y       z     vdW  Elec       q    Type
REMARK                         _______ _______ _______ _____ _____    ______ ____
ROOT
ATOM      1  O   HOH     1      44.552  -1.783  -1.887  0.00  0.00    +0.000 OA
ENDROOT
TORSDOF 0
