REMARK  Name = ../refined-set-2016/2yix/2yix_pocket.pdb
REMARK  259 active torsions:
REMARK  status: ('A' for Active; 'I' for Inactive)
REMARK    1  A    between atoms: _1  and  _3
REMARK    2  A    between atoms: _3  and  _4
REMARK    3  A    between atoms: _3  and  _6
REMARK    4  A    between atoms: _9  and  _11
REMARK    5  A    between atoms: _11  and  _12
REMARK    6  A    between atoms: _14  and  _16
REMARK    7  A    between atoms: _16  and  _17
REMARK    8  A    between atoms: _16  and  _19
REMARK    9  A    between atoms: _19  and  _20
REMARK   10  A    between atoms: _22  and  _24
REMARK   11  A    between atoms: _24  and  _25
REMARK   12  A    between atoms: _28  and  _30
REMARK   13  A    between atoms: _30  and  _31
REMARK   14  A    between atoms: _30  and  _33
REMARK   15  A    between atoms: _33  and  _34
REMARK   16  A    between atoms: _39  and  _40
REMARK   17  A    between atoms: _42  and  _44
REMARK   18  A    between atoms: _44  and  _45
REMARK   19  A    between atoms: _47  and  _49
REMARK   20  A    between atoms: _49  and  _50
REMARK   21  A    between atoms: _49  and  _52
REMARK   22  A    between atoms: _52  and  _53
REMARK   23  A    between atoms: _55  and  _57
REMARK   24  A    between atoms: _57  and  _58
REMARK   25  A    between atoms: _57  and  _60
REMARK   26  A    between atoms: _63  and  _65
REMARK   27  A    between atoms: _65  and  _66
REMARK   28  A    between atoms: _65  and  _68
REMARK   29  A    between atoms: _70  and  _72
REMARK   30  A    between atoms: _72  and  _73
REMARK   31  A    between atoms: _76  and  _78
REMARK   32  A    between atoms: _78  and  _79
REMARK   33  A    between atoms: _78  and  _81
REMARK   34  A    between atoms: _81  and  _82
REMARK   35  A    between atoms: _82  and  _83
REMARK   36  A    between atoms: _83  and  _84
REMARK   37  A    between atoms: _93  and  _95
REMARK   38  A    between atoms: _95  and  _96
REMARK   39  A    between atoms: _95  and  _98
REMARK   40  A    between atoms: _101  and  _103
REMARK   41  A    between atoms: _103  and  _104
REMARK   42  A    between atoms: _107  and  _109
REMARK   43  A    between atoms: _109  and  _110
REMARK   44  A    between atoms: _109  and  _112
REMARK   45  A    between atoms: _115  and  _117
REMARK   46  A    between atoms: _117  and  _118
REMARK   47  A    between atoms: _117  and  _120
REMARK   48  A    between atoms: _120  and  _121
REMARK   49  A    between atoms: _121  and  _122
REMARK   50  A    between atoms: _122  and  _123
REMARK   51  A    between atoms: _123  and  _124
REMARK   52  A    between atoms: _128  and  _130
REMARK   53  A    between atoms: _130  and  _131
REMARK   54  A    between atoms: _130  and  _133
REMARK   55  A    between atoms: _133  and  _134
REMARK   56  A    between atoms: _134  and  _135
REMARK   57  A    between atoms: _135  and  _136
REMARK   58  A    between atoms: _136  and  _137
REMARK   59  A    between atoms: _141  and  _143
REMARK   60  A    between atoms: _143  and  _144
REMARK   61  A    between atoms: _143  and  _146
REMARK   62  A    between atoms: _146  and  _147
REMARK   63  A    between atoms: _150  and  _152
REMARK   64  A    between atoms: _152  and  _153
REMARK   65  A    between atoms: _152  and  _155
REMARK   66  A    between atoms: _155  and  _156
REMARK   67  A    between atoms: _156  and  _157
REMARK   68  A    between atoms: _157  and  _158
REMARK   69  A    between atoms: _167  and  _169
REMARK   70  A    between atoms: _169  and  _170
REMARK   71  A    between atoms: _169  and  _172
REMARK   72  A    between atoms: _172  and  _173
REMARK   73  A    between atoms: _173  and  _174
REMARK   74  A    between atoms: _174  and  _175
REMARK   75  A    between atoms: _184  and  _186
REMARK   76  A    between atoms: _186  and  _187
REMARK   77  A    between atoms: _186  and  _189
REMARK   78  A    between atoms: _189  and  _190
REMARK   79  A    between atoms: _190  and  _191
REMARK   80  A    between atoms: _194  and  _196
REMARK   81  A    between atoms: _196  and  _197
REMARK   82  A    between atoms: _196  and  _199
REMARK   83  A    between atoms: _199  and  _200
REMARK   84  A    between atoms: _203  and  _205
REMARK   85  A    between atoms: _205  and  _206
REMARK   86  A    between atoms: _205  and  _208
REMARK   87  A    between atoms: _208  and  _209
REMARK   88  A    between atoms: _209  and  _210
REMARK   89  A    between atoms: _210  and  _211
REMARK   90  A    between atoms: _220  and  _222
REMARK   91  A    between atoms: _222  and  _223
REMARK   92  A    between atoms: _222  and  _225
REMARK   93  A    between atoms: _225  and  _226
REMARK   94  A    between atoms: _229  and  _231
REMARK   95  A    between atoms: _231  and  _232
REMARK   96  A    between atoms: _231  and  _234
REMARK   97  A    between atoms: _234  and  _235
REMARK   98  A    between atoms: _238  and  _240
REMARK   99  A    between atoms: _240  and  _241
REMARK  100  A    between atoms: _240  and  _243
REMARK  101  A    between atoms: _243  and  _244
REMARK  102  A    between atoms: _244  and  _245
REMARK  103  A    between atoms: _245  and  _246
REMARK  104  A    between atoms: _246  and  _247
REMARK  105  A    between atoms: _251  and  _253
REMARK  106  A    between atoms: _253  and  _254
REMARK  107  A    between atoms: _253  and  _256
REMARK  108  A    between atoms: _256  and  _257
REMARK  109  A    between atoms: _262  and  _264
REMARK  110  A    between atoms: _264  and  _265
REMARK  111  A    between atoms: _264  and  _267
REMARK  112  A    between atoms: _267  and  _268
REMARK  113  A    between atoms: _268  and  _269
REMARK  114  A    between atoms: _271  and  _273
REMARK  115  A    between atoms: _273  and  _274
REMARK  116  A    between atoms: _273  and  _276
REMARK  117  A    between atoms: _279  and  _281
REMARK  118  A    between atoms: _281  and  _282
REMARK  119  A    between atoms: _281  and  _284
REMARK  120  A    between atoms: _284  and  _285
REMARK  121  A    between atoms: _288  and  _290
REMARK  122  A    between atoms: _290  and  _291
REMARK  123  A    between atoms: _293  and  _295
REMARK  124  A    between atoms: _295  and  _296
REMARK  125  A    between atoms: _295  and  _298
REMARK  126  A    between atoms: _298  and  _299
REMARK  127  A    between atoms: _302  and  _304
REMARK  128  A    between atoms: _304  and  _305
REMARK  129  A    between atoms: _304  and  _307
REMARK  130  A    between atoms: _307  and  _308
REMARK  131  A    between atoms: _311  and  _313
REMARK  132  A    between atoms: _313  and  _314
REMARK  133  A    between atoms: _313  and  _316
REMARK  134  A    between atoms: _316  and  _317
REMARK  135  A    between atoms: _320  and  _322
REMARK  136  A    between atoms: _322  and  _323
REMARK  137  A    between atoms: _322  and  _325
REMARK  138  A    between atoms: _325  and  _326
REMARK  139  A    between atoms: _331  and  _332
REMARK  140  A    between atoms: _334  and  _336
REMARK  141  A    between atoms: _336  and  _337
REMARK  142  A    between atoms: _336  and  _339
REMARK  143  A    between atoms: _339  and  _340
REMARK  144  A    between atoms: _343  and  _345
REMARK  145  A    between atoms: _345  and  _346
REMARK  146  A    between atoms: _345  and  _348
REMARK  147  A    between atoms: _351  and  _353
REMARK  148  A    between atoms: _353  and  _354
REMARK  149  A    between atoms: _353  and  _356
REMARK  150  A    between atoms: _356  and  _357
REMARK  151  A    between atoms: _360  and  _362
REMARK  152  A    between atoms: _362  and  _363
REMARK  153  A    between atoms: _362  and  _365
REMARK  154  A    between atoms: _365  and  _366
REMARK  155  A    between atoms: _371  and  _373
REMARK  156  A    between atoms: _373  and  _374
REMARK  157  A    between atoms: _373  and  _376
REMARK  158  A    between atoms: _376  and  _377
REMARK  159  A    between atoms: _380  and  _382
REMARK  160  A    between atoms: _382  and  _383
REMARK  161  A    between atoms: _382  and  _385
REMARK  162  A    between atoms: _385  and  _386
REMARK  163  A    between atoms: _386  and  _387
REMARK  164  A    between atoms: _389  and  _391
REMARK  165  A    between atoms: _391  and  _392
REMARK  166  A    between atoms: _394  and  _396
REMARK  167  A    between atoms: _396  and  _397
REMARK  168  A    between atoms: _400  and  _402
REMARK  169  A    between atoms: _402  and  _403
REMARK  170  A    between atoms: _402  and  _405
REMARK  171  A    between atoms: _405  and  _406
REMARK  172  A    between atoms: _409  and  _411
REMARK  173  A    between atoms: _411  and  _412
REMARK  174  A    between atoms: _411  and  _414
REMARK  175  A    between atoms: _414  and  _415
REMARK  176  A    between atoms: _418  and  _420
REMARK  177  A    between atoms: _420  and  _421
REMARK  178  A    between atoms: _420  and  _423
REMARK  179  A    between atoms: _423  and  _424
REMARK  180  A    between atoms: _429  and  _431
REMARK  181  A    between atoms: _431  and  _432
REMARK  182  A    between atoms: _431  and  _434
REMARK  183  A    between atoms: _434  and  _435
REMARK  184  A    between atoms: _440  and  _442
REMARK  185  A    between atoms: _442  and  _443
REMARK  186  A    between atoms: _442  and  _445
REMARK  187  A    between atoms: _445  and  _446
REMARK  188  A    between atoms: _449  and  _451
REMARK  189  A    between atoms: _451  and  _452
REMARK  190  A    between atoms: _451  and  _454
REMARK  191  A    between atoms: _454  and  _455
REMARK  192  A    between atoms: _458  and  _460
REMARK  193  A    between atoms: _460  and  _461
REMARK  194  A    between atoms: _460  and  _463
REMARK  195  A    between atoms: _463  and  _464
REMARK  196  A    between atoms: _470  and  _471
REMARK  197  A    between atoms: _476  and  _478
REMARK  198  A    between atoms: _478  and  _479
REMARK  199  A    between atoms: _478  and  _481
REMARK  200  A    between atoms: _481  and  _482
REMARK  201  A    between atoms: _484  and  _486
REMARK  202  A    between atoms: _486  and  _487
REMARK  203  A    between atoms: _486  and  _489
REMARK  204  A    between atoms: _489  and  _490
REMARK  205  A    between atoms: _495  and  _497
REMARK  206  A    between atoms: _497  and  _498
REMARK  207  A    between atoms: _497  and  _500
REMARK  208  A    between atoms: _500  and  _501
REMARK  209  A    between atoms: _504  and  _506
REMARK  210  A    between atoms: _506  and  _507
REMARK  211  A    between atoms: _510  and  _512
REMARK  212  A    between atoms: _512  and  _513
REMARK  213  A    between atoms: _512  and  _515
REMARK  214  A    between atoms: _518  and  _520
REMARK  215  A    between atoms: _520  and  _521
REMARK  216  A    between atoms: _520  and  _523
REMARK  217  A    between atoms: _523  and  _524
REMARK  218  A    between atoms: _529  and  _531
REMARK  219  A    between atoms: _531  and  _532
REMARK  220  A    between atoms: _531  and  _534
REMARK  221  A    between atoms: _534  and  _535
REMARK  222  A    between atoms: _535  and  _536
REMARK  223  A    between atoms: _536  and  _537
REMARK  224  A    between atoms: _537  and  _538
REMARK  225  A    between atoms: _542  and  _544
REMARK  226  A    between atoms: _544  and  _545
REMARK  227  A    between atoms: _544  and  _547
REMARK  228  A    between atoms: _547  and  _548
REMARK  229  A    between atoms: _551  and  _553
REMARK  230  A    between atoms: _553  and  _554
REMARK  231  A    between atoms: _553  and  _556
REMARK  232  A    between atoms: _556  and  _557
REMARK  233  A    between atoms: _560  and  _562
REMARK  234  A    between atoms: _562  and  _563
REMARK  235  A    between atoms: _562  and  _565
REMARK  236  A    between atoms: _565  and  _566
REMARK  237  A    between atoms: _569  and  _571
REMARK  238  A    between atoms: _571  and  _572
REMARK  239  A    between atoms: _571  and  _574
REMARK  240  A    between atoms: _574  and  _575
REMARK  241  A    between atoms: _581  and  _583
REMARK  242  A    between atoms: _583  and  _584
REMARK  243  A    between atoms: _586  and  _588
REMARK  244  A    between atoms: _588  and  _589
REMARK  245  A    between atoms: _588  and  _591
REMARK  246  A    between atoms: _591  and  _592
REMARK  247  A    between atoms: _595  and  _597
REMARK  248  A    between atoms: _597  and  _598
REMARK  249  A    between atoms: _601  and  _603
REMARK  250  A    between atoms: _603  and  _604
REMARK  251  A    between atoms: _603  and  _606
REMARK  252  A    between atoms: _606  and  _607
REMARK  253  A    between atoms: _607  and  _608
REMARK  254  A    between atoms: _608  and  _609
REMARK  255  A    between atoms: _618  and  _620
REMARK  256  A    between atoms: _620  and  _621
REMARK  257  A    between atoms: _620  and  _623
REMARK  258  A    between atoms: _623  and  _624
REMARK  259  A    between atoms: _629  and  _630
REMARK                            x       y       z     vdW  Elec       q    Type
REMARK                         _______ _______ _______ _____ _____    ______ ____
ROOT
ATOM      1  CA  GLY A   2      -3.839  13.035  25.227  0.00  0.00    +0.176 C 
ENDROOT
BRANCH   1   3
ATOM      2  C   VAL A   1      -2.303  11.779  23.755  0.00  0.00    +0.238 C 
ATOM      3  N   GLY A   2      -3.446  11.884  24.426  0.00  0.00    -0.296 N 
ATOM      4  H   GLY A   2      -4.109  11.084  24.375  0.00  0.00    +0.150 HD
ATOM      5  O   VAL A   1      -1.446  12.666  23.702  0.00  0.00    -0.274 OA
BRANCH   2   6
ATOM      6  CA  VAL A   1      -2.073  10.424  23.075  0.00  0.00    +0.145 C 
BRANCH   6   7
ATOM      7  CB  VAL A   1      -1.704   9.368  24.142  0.00  0.00    +0.025 C 
ATOM      8  CG2 VAL A   1      -0.267   9.536  24.642  0.00  0.00    +0.002 C 
ATOM      9  CG1 VAL A   1      -1.983   7.959  23.651  0.00  0.00    +0.002 C 
ENDBRANCH   6   7
BRANCH   6  10
ATOM     10  N   VAL A   1      -1.090  10.519  21.985  0.00  0.00    -0.238 NA
ATOM     11  H   VAL A   1      -0.191  11.005  22.181  0.00  0.00    +0.142 HD
ENDBRANCH   6  10
ENDBRANCH   2   6
ENDBRANCH   1   3
BRANCH   1  12
ATOM     12  C   GLY A   2      -4.380  14.246  24.505  0.00  0.00    +0.243 C 
ATOM     13  O   GLY A   2      -4.723  15.219  25.165  0.00  0.00    -0.273 OA
ATOM     14  N   SER A   3      -4.465  14.203  23.161  0.00  0.00    -0.296 N 
ATOM     15  H   SER A   3      -4.142  13.336  22.686  0.00  0.00    +0.150 HD
BRANCH  14  16
ATOM     16  CA  SER A   3      -4.980  15.288  22.316  0.00  0.00    +0.166 C 
BRANCH  16  17
ATOM     17  CB  SER A   3      -4.277  16.653  22.612  0.00  0.00    +0.229 C 
ATOM     18  OG  SER A   3      -4.938  17.689  22.809  0.00  0.00    -0.286 OA
ENDBRANCH  16  17
BRANCH  16  19
ATOM     19  C   SER A   3      -6.504  15.386  22.431  0.00  0.00    +0.165 C 
BRANCH  19  20
ATOM     20  O   SER A   3      -7.146  14.120  22.407  0.00  0.00    -0.380 OA
ATOM     21  H   SER A   3      -6.938  13.662  21.555  0.00  0.00    +0.211 HD
ENDBRANCH  19  20
ENDBRANCH  16  19
ENDBRANCH  14  16
ENDBRANCH   1  12
TORSDOF 9
REMARK  Name = ../refined-set-2016/2yix/2yix_pocket.pdb
REMARK  259 active torsions:
REMARK  status: ('A' for Active; 'I' for Inactive)
REMARK    1  A    between atoms: _1  and  _3
REMARK    2  A    between atoms: _3  and  _4
REMARK    3  A    between atoms: _3  and  _6
REMARK    4  A    between atoms: _9  and  _11
REMARK    5  A    between atoms: _11  and  _12
REMARK    6  A    between atoms: _14  and  _16
REMARK    7  A    between atoms: _16  and  _17
REMARK    8  A    between atoms: _16  and  _19
REMARK    9  A    between atoms: _19  and  _20
REMARK   10  A    between atoms: _22  and  _24
REMARK   11  A    between atoms: _24  and  _25
REMARK   12  A    between atoms: _28  and  _30
REMARK   13  A    between atoms: _30  and  _31
REMARK   14  A    between atoms: _30  and  _33
REMARK   15  A    between atoms: _33  and  _34
REMARK   16  A    between atoms: _39  and  _40
REMARK   17  A    between atoms: _42  and  _44
REMARK   18  A    between atoms: _44  and  _45
REMARK   19  A    between atoms: _47  and  _49
REMARK   20  A    between atoms: _49  and  _50
REMARK   21  A    between atoms: _49  and  _52
REMARK   22  A    between atoms: _52  and  _53
REMARK   23  A    between atoms: _55  and  _57
REMARK   24  A    between atoms: _57  and  _58
REMARK   25  A    between atoms: _57  and  _60
REMARK   26  A    between atoms: _63  and  _65
REMARK   27  A    between atoms: _65  and  _66
REMARK   28  A    between atoms: _65  and  _68
REMARK   29  A    between atoms: _70  and  _72
REMARK   30  A    between atoms: _72  and  _73
REMARK   31  A    between atoms: _76  and  _78
REMARK   32  A    between atoms: _78  and  _79
REMARK   33  A    between atoms: _78  and  _81
REMARK   34  A    between atoms: _81  and  _82
REMARK   35  A    between atoms: _82  and  _83
REMARK   36  A    between atoms: _83  and  _84
REMARK   37  A    between atoms: _93  and  _95
REMARK   38  A    between atoms: _95  and  _96
REMARK   39  A    between atoms: _95  and  _98
REMARK   40  A    between atoms: _101  and  _103
REMARK   41  A    between atoms: _103  and  _104
REMARK   42  A    between atoms: _107  and  _109
REMARK   43  A    between atoms: _109  and  _110
REMARK   44  A    between atoms: _109  and  _112
REMARK   45  A    between atoms: _115  and  _117
REMARK   46  A    between atoms: _117  and  _118
REMARK   47  A    between atoms: _117  and  _120
REMARK   48  A    between atoms: _120  and  _121
REMARK   49  A    between atoms: _121  and  _122
REMARK   50  A    between atoms: _122  and  _123
REMARK   51  A    between atoms: _123  and  _124
REMARK   52  A    between atoms: _128  and  _130
REMARK   53  A    between atoms: _130  and  _131
REMARK   54  A    between atoms: _130  and  _133
REMARK   55  A    between atoms: _133  and  _134
REMARK   56  A    between atoms: _134  and  _135
REMARK   57  A    between atoms: _135  and  _136
REMARK   58  A    between atoms: _136  and  _137
REMARK   59  A    between atoms: _141  and  _143
REMARK   60  A    between atoms: _143  and  _144
REMARK   61  A    between atoms: _143  and  _146
REMARK   62  A    between atoms: _146  and  _147
REMARK   63  A    between atoms: _150  and  _152
REMARK   64  A    between atoms: _152  and  _153
REMARK   65  A    between atoms: _152  and  _155
REMARK   66  A    between atoms: _155  and  _156
REMARK   67  A    between atoms: _156  and  _157
REMARK   68  A    between atoms: _157  and  _158
REMARK   69  A    between atoms: _167  and  _169
REMARK   70  A    between atoms: _169  and  _170
REMARK   71  A    between atoms: _169  and  _172
REMARK   72  A    between atoms: _172  and  _173
REMARK   73  A    between atoms: _173  and  _174
REMARK   74  A    between atoms: _174  and  _175
REMARK   75  A    between atoms: _184  and  _186
REMARK   76  A    between atoms: _186  and  _187
REMARK   77  A    between atoms: _186  and  _189
REMARK   78  A    between atoms: _189  and  _190
REMARK   79  A    between atoms: _190  and  _191
REMARK   80  A    between atoms: _194  and  _196
REMARK   81  A    between atoms: _196  and  _197
REMARK   82  A    between atoms: _196  and  _199
REMARK   83  A    between atoms: _199  and  _200
REMARK   84  A    between atoms: _203  and  _205
REMARK   85  A    between atoms: _205  and  _206
REMARK   86  A    between atoms: _205  and  _208
REMARK   87  A    between atoms: _208  and  _209
REMARK   88  A    between atoms: _209  and  _210
REMARK   89  A    between atoms: _210  and  _211
REMARK   90  A    between atoms: _220  and  _222
REMARK   91  A    between atoms: _222  and  _223
REMARK   92  A    between atoms: _222  and  _225
REMARK   93  A    between atoms: _225  and  _226
REMARK   94  A    between atoms: _229  and  _231
REMARK   95  A    between atoms: _231  and  _232
REMARK   96  A    between atoms: _231  and  _234
REMARK   97  A    between atoms: _234  and  _235
REMARK   98  A    between atoms: _238  and  _240
REMARK   99  A    between atoms: _240  and  _241
REMARK  100  A    between atoms: _240  and  _243
REMARK  101  A    between atoms: _243  and  _244
REMARK  102  A    between atoms: _244  and  _245
REMARK  103  A    between atoms: _245  and  _246
REMARK  104  A    between atoms: _246  and  _247
REMARK  105  A    between atoms: _251  and  _253
REMARK  106  A    between atoms: _253  and  _254
REMARK  107  A    between atoms: _253  and  _256
REMARK  108  A    between atoms: _256  and  _257
REMARK  109  A    between atoms: _262  and  _264
REMARK  110  A    between atoms: _264  and  _265
REMARK  111  A    between atoms: _264  and  _267
REMARK  112  A    between atoms: _267  and  _268
REMARK  113  A    between atoms: _268  and  _269
REMARK  114  A    between atoms: _271  and  _273
REMARK  115  A    between atoms: _273  and  _274
REMARK  116  A    between atoms: _273  and  _276
REMARK  117  A    between atoms: _279  and  _281
REMARK  118  A    between atoms: _281  and  _282
REMARK  119  A    between atoms: _281  and  _284
REMARK  120  A    between atoms: _284  and  _285
REMARK  121  A    between atoms: _288  and  _290
REMARK  122  A    between atoms: _290  and  _291
REMARK  123  A    between atoms: _293  and  _295
REMARK  124  A    between atoms: _295  and  _296
REMARK  125  A    between atoms: _295  and  _298
REMARK  126  A    between atoms: _298  and  _299
REMARK  127  A    between atoms: _302  and  _304
REMARK  128  A    between atoms: _304  and  _305
REMARK  129  A    between atoms: _304  and  _307
REMARK  130  A    between atoms: _307  and  _308
REMARK  131  A    between atoms: _311  and  _313
REMARK  132  A    between atoms: _313  and  _314
REMARK  133  A    between atoms: _313  and  _316
REMARK  134  A    between atoms: _316  and  _317
REMARK  135  A    between atoms: _320  and  _322
REMARK  136  A    between atoms: _322  and  _323
REMARK  137  A    between atoms: _322  and  _325
REMARK  138  A    between atoms: _325  and  _326
REMARK  139  A    between atoms: _331  and  _332
REMARK  140  A    between atoms: _334  and  _336
REMARK  141  A    between atoms: _336  and  _337
REMARK  142  A    between atoms: _336  and  _339
REMARK  143  A    between atoms: _339  and  _340
REMARK  144  A    between atoms: _343  and  _345
REMARK  145  A    between atoms: _345  and  _346
REMARK  146  A    between atoms: _345  and  _348
REMARK  147  A    between atoms: _351  and  _353
REMARK  148  A    between atoms: _353  and  _354
REMARK  149  A    between atoms: _353  and  _356
REMARK  150  A    between atoms: _356  and  _357
REMARK  151  A    between atoms: _360  and  _362
REMARK  152  A    between atoms: _362  and  _363
REMARK  153  A    between atoms: _362  and  _365
REMARK  154  A    between atoms: _365  and  _366
REMARK  155  A    between atoms: _371  and  _373
REMARK  156  A    between atoms: _373  and  _374
REMARK  157  A    between atoms: _373  and  _376
REMARK  158  A    between atoms: _376  and  _377
REMARK  159  A    between atoms: _380  and  _382
REMARK  160  A    between atoms: _382  and  _383
REMARK  161  A    between atoms: _382  and  _385
REMARK  162  A    between atoms: _385  and  _386
REMARK  163  A    between atoms: _386  and  _387
REMARK  164  A    between atoms: _389  and  _391
REMARK  165  A    between atoms: _391  and  _392
REMARK  166  A    between atoms: _394  and  _396
REMARK  167  A    between atoms: _396  and  _397
REMARK  168  A    between atoms: _400  and  _402
REMARK  169  A    between atoms: _402  and  _403
REMARK  170  A    between atoms: _402  and  _405
REMARK  171  A    between atoms: _405  and  _406
REMARK  172  A    between atoms: _409  and  _411
REMARK  173  A    between atoms: _411  and  _412
REMARK  174  A    between atoms: _411  and  _414
REMARK  175  A    between atoms: _414  and  _415
REMARK  176  A    between atoms: _418  and  _420
REMARK  177  A    between atoms: _420  and  _421
REMARK  178  A    between atoms: _420  and  _423
REMARK  179  A    between atoms: _423  and  _424
REMARK  180  A    between atoms: _429  and  _431
REMARK  181  A    between atoms: _431  and  _432
REMARK  182  A    between atoms: _431  and  _434
REMARK  183  A    between atoms: _434  and  _435
REMARK  184  A    between atoms: _440  and  _442
REMARK  185  A    between atoms: _442  and  _443
REMARK  186  A    between atoms: _442  and  _445
REMARK  187  A    between atoms: _445  and  _446
REMARK  188  A    between atoms: _449  and  _451
REMARK  189  A    between atoms: _451  and  _452
REMARK  190  A    between atoms: _451  and  _454
REMARK  191  A    between atoms: _454  and  _455
REMARK  192  A    between atoms: _458  and  _460
REMARK  193  A    between atoms: _460  and  _461
REMARK  194  A    between atoms: _460  and  _463
REMARK  195  A    between atoms: _463  and  _464
REMARK  196  A    between atoms: _470  and  _471
REMARK  197  A    between atoms: _476  and  _478
REMARK  198  A    between atoms: _478  and  _479
REMARK  199  A    between atoms: _478  and  _481
REMARK  200  A    between atoms: _481  and  _482
REMARK  201  A    between atoms: _484  and  _486
REMARK  202  A    between atoms: _486  and  _487
REMARK  203  A    between atoms: _486  and  _489
REMARK  204  A    between atoms: _489  and  _490
REMARK  205  A    between atoms: _495  and  _497
REMARK  206  A    between atoms: _497  and  _498
REMARK  207  A    between atoms: _497  and  _500
REMARK  208  A    between atoms: _500  and  _501
REMARK  209  A    between atoms: _504  and  _506
REMARK  210  A    between atoms: _506  and  _507
REMARK  211  A    between atoms: _510  and  _512
REMARK  212  A    between atoms: _512  and  _513
REMARK  213  A    between atoms: _512  and  _515
REMARK  214  A    between atoms: _518  and  _520
REMARK  215  A    between atoms: _520  and  _521
REMARK  216  A    between atoms: _520  and  _523
REMARK  217  A    between atoms: _523  and  _524
REMARK  218  A    between atoms: _529  and  _531
REMARK  219  A    between atoms: _531  and  _532
REMARK  220  A    between atoms: _531  and  _534
REMARK  221  A    between atoms: _534  and  _535
REMARK  222  A    between atoms: _535  and  _536
REMARK  223  A    between atoms: _536  and  _537
REMARK  224  A    between atoms: _537  and  _538
REMARK  225  A    between atoms: _542  and  _544
REMARK  226  A    between atoms: _544  and  _545
REMARK  227  A    between atoms: _544  and  _547
REMARK  228  A    between atoms: _547  and  _548
REMARK  229  A    between atoms: _551  and  _553
REMARK  230  A    between atoms: _553  and  _554
REMARK  231  A    between atoms: _553  and  _556
REMARK  232  A    between atoms: _556  and  _557
REMARK  233  A    between atoms: _560  and  _562
REMARK  234  A    between atoms: _562  and  _563
REMARK  235  A    between atoms: _562  and  _565
REMARK  236  A    between atoms: _565  and  _566
REMARK  237  A    between atoms: _569  and  _571
REMARK  238  A    between atoms: _571  and  _572
REMARK  239  A    between atoms: _571  and  _574
REMARK  240  A    between atoms: _574  and  _575
REMARK  241  A    between atoms: _581  and  _583
REMARK  242  A    between atoms: _583  and  _584
REMARK  243  A    between atoms: _586  and  _588
REMARK  244  A    between atoms: _588  and  _589
REMARK  245  A    between atoms: _588  and  _591
REMARK  246  A    between atoms: _591  and  _592
REMARK  247  A    between atoms: _595  and  _597
REMARK  248  A    between atoms: _597  and  _598
REMARK  249  A    between atoms: _601  and  _603
REMARK  250  A    between atoms: _603  and  _604
REMARK  251  A    between atoms: _603  and  _606
REMARK  252  A    between atoms: _606  and  _607
REMARK  253  A    between atoms: _607  and  _608
REMARK  254  A    between atoms: _608  and  _609
REMARK  255  A    between atoms: _618  and  _620
REMARK  256  A    between atoms: _620  and  _621
REMARK  257  A    between atoms: _620  and  _623
REMARK  258  A    between atoms: _623  and  _624
REMARK  259  A    between atoms: _629  and  _630
REMARK                            x       y       z     vdW  Elec       q    Type
REMARK                         _______ _______ _______ _____ _____    ______ ____
ROOT
ATOM      1  C   GLY A   3       2.380  17.173  23.837  0.00  0.00    +0.243 C 
ATOM      2  O   GLY A   3       1.464  16.383  23.611  0.00  0.00    -0.273 OA
ATOM      3  N   SER A   4       3.554  17.141  23.161  0.00  0.00    -0.295 N 
ATOM      4  H   SER A   4       4.283  17.845  23.394  0.00  0.00    +0.150 HD
ENDROOT
BRANCH   3   5
ATOM      5  CA  SER A   4       3.840  16.149  22.109  0.00  0.00    +0.178 C 
BRANCH   5   6
ATOM      6  C   SER A   4       4.219  14.803  22.720  0.00  0.00    +0.243 C 
ATOM      7  N   VAL A   5       3.196  14.022  23.117  0.00  0.00    -0.297 N 
ATOM      8  H   VAL A   5       2.236  14.382  22.944  0.00  0.00    +0.150 HD
ATOM      9  O   SER A   4       5.405  14.505  22.871  0.00  0.00    -0.273 OA
BRANCH   7  10
ATOM     10  CA  VAL A   5       3.305  12.715  23.769  0.00  0.00    +0.149 C 
BRANCH  10  11
ATOM     11  C   VAL A   5       2.690  11.605  22.904  0.00  0.00    +0.241 C 
ATOM     12  N   CYS A   6       3.410  10.473  22.835  0.00  0.00    -0.296 N 
ATOM     13  H   CYS A   6       4.319  10.465  23.341  0.00  0.00    +0.150 HD
ATOM     14  O   VAL A   5       1.615  11.776  22.313  0.00  0.00    -0.273 OA
BRANCH  12  15
ATOM     15  CA  CYS A   6       3.047   9.261  22.126  0.00  0.00    +0.160 C 
BRANCH  15  16
ATOM     16  C   CYS A   6       3.065   8.091  23.095  0.00  0.00    +0.242 C 
ATOM     17  O   CYS A   6       3.992   7.974  23.912  0.00  0.00    -0.273 OA
ATOM     18  N   ALA A   7       2.072   7.194  22.969  0.00  0.00    -0.298 N 
ATOM     19  H   ALA A   7       1.277   7.427  22.340  0.00  0.00    +0.150 HD
BRANCH  18  20
ATOM     20  CA  ALA A   7       2.046   5.910  23.666  0.00  0.00    +0.137 C 
ATOM     21  CB  ALA A   7       0.631   5.348  23.733  0.00  0.00    +0.030 C 
BRANCH  20  22
ATOM     22  C   ALA A   7       2.899   5.026  22.765  0.00  0.00    +0.227 C 
ATOM     23  O   ALA A   7       2.884   5.186  21.544  0.00  0.00    -0.286 OA
ENDBRANCH  20  22
ENDBRANCH  18  20
ENDBRANCH  15  16
BRANCH  15  24
ATOM     24  CB  CYS A   6       4.004   9.001  20.965  0.00  0.00    +0.098 C 
ATOM     25  SG  CYS A   6       3.672   9.976  19.473  0.00  0.00    -0.080 S 
ENDBRANCH  15  24
ENDBRANCH  12  15
ENDBRANCH  10  11
BRANCH  10  26
ATOM     26  CB  VAL A   5       2.752  12.711  25.229  0.00  0.00    +0.027 C 
ATOM     27  CG2 VAL A   5       3.433  13.774  26.089  0.00  0.00    +0.002 C 
ATOM     28  CG1 VAL A   5       2.888  11.336  25.886  0.00  0.00    +0.002 C 
ENDBRANCH  10  26
ENDBRANCH   7  10
ENDBRANCH   5   6
BRANCH   5  29
ATOM     29  CB  SER A   4       4.928  16.648  21.163  0.00  0.00    +0.166 C 
BRANCH  29  30
ATOM     30  OG  SER A   4       4.469  17.731  20.374  0.00  0.00    -0.380 OA
ATOM     31  H   SER A   4       4.199  18.478  20.965  0.00  0.00    +0.211 HD
ENDBRANCH  29  30
ENDBRANCH   5  29
ENDBRANCH   3   5
BRANCH   1  32
ATOM     32  CA  GLY A   3       2.193  18.249  24.894  0.00  0.00    +0.176 C 
BRANCH  32  35
ATOM     33  C   TYR A   2       1.489  17.139  26.962  0.00  0.00    +0.241 C 
ATOM     34  O   TYR A   2       2.637  16.795  27.248  0.00  0.00    -0.273 OA
ATOM     35  N   GLY A   3       1.199  17.868  25.890  0.00  0.00    -0.295 N 
ATOM     36  H   GLY A   3       0.217  18.182  25.755  0.00  0.00    +0.150 HD
BRANCH  33  37
ATOM     37  CA  TYR A   2       0.310  16.755  27.870  0.00  0.00    +0.153 C 
BRANCH  37  40
ATOM     38  C   ALA A   1      -1.821  17.989  27.492  0.00  0.00    +0.238 C 
ATOM     39  O   ALA A   1      -1.597  18.823  28.367  0.00  0.00    -0.274 OA
ATOM     40  N   TYR A   2      -0.973  16.988  27.192  0.00  0.00    -0.297 N 
ATOM     41  H   TYR A   2      -1.244  16.335  26.429  0.00  0.00    +0.150 HD
BRANCH  38  42
ATOM     42  CA  ALA A   1      -3.113  18.075  26.686  0.00  0.00    +0.145 C 
ATOM     43  CB  ALA A   1      -4.211  17.282  27.379  0.00  0.00    +0.028 C 
BRANCH  42  44
ATOM     44  N   ALA A   1      -2.968  17.658  25.277  0.00  0.00    -0.238 NA
ATOM     45  H   ALA A   1      -3.515  16.838  24.946  0.00  0.00    +0.142 HD
ENDBRANCH  42  44
ENDBRANCH  38  42
ENDBRANCH  37  40
BRANCH  37  46
ATOM     46  CB  TYR A   2       0.389  15.269  28.322  0.00  0.00    +0.055 C 
BRANCH  46  47
ATOM     47  CG  TYR A   2      -0.796  14.839  29.161  0.00  0.00    -0.020 A 
ATOM     48  CD2 TYR A   2      -0.827  15.075  30.531  0.00  0.00    -0.001 A 
ATOM     49  CE2 TYR A   2      -1.938  14.731  31.300  0.00  0.00    +0.036 A 
ATOM     50  CZ  TYR A   2      -3.045  14.159  30.693  0.00  0.00    +0.134 A 
ATOM     51  CE1 TYR A   2      -3.022  13.886  29.335  0.00  0.00    +0.036 A 
ATOM     52  CD1 TYR A   2      -1.902  14.230  28.580  0.00  0.00    -0.001 A 
BRANCH  50  53
ATOM     53  OH  TYR A   2      -4.166  13.864  31.437  0.00  0.00    -0.506 OA
ATOM     54  HH  TYR A   2      -4.940  14.366  31.079  0.00  0.00    +0.292 HD
ENDBRANCH  50  53
ENDBRANCH  46  47
ENDBRANCH  37  46
ENDBRANCH  33  37
ENDBRANCH  32  35
ENDBRANCH   1  32
TORSDOF 21
REMARK  Name = ../refined-set-2016/2yix/2yix_pocket.pdb
REMARK  259 active torsions:
REMARK  status: ('A' for Active; 'I' for Inactive)
REMARK    1  A    between atoms: _1  and  _3
REMARK    2  A    between atoms: _3  and  _4
REMARK    3  A    between atoms: _3  and  _6
REMARK    4  A    between atoms: _9  and  _11
REMARK    5  A    between atoms: _11  and  _12
REMARK    6  A    between atoms: _14  and  _16
REMARK    7  A    between atoms: _16  and  _17
REMARK    8  A    between atoms: _16  and  _19
REMARK    9  A    between atoms: _19  and  _20
REMARK   10  A    between atoms: _22  and  _24
REMARK   11  A    between atoms: _24  and  _25
REMARK   12  A    between atoms: _28  and  _30
REMARK   13  A    between atoms: _30  and  _31
REMARK   14  A    between atoms: _30  and  _33
REMARK   15  A    between atoms: _33  and  _34
REMARK   16  A    between atoms: _39  and  _40
REMARK   17  A    between atoms: _42  and  _44
REMARK   18  A    between atoms: _44  and  _45
REMARK   19  A    between atoms: _47  and  _49
REMARK   20  A    between atoms: _49  and  _50
REMARK   21  A    between atoms: _49  and  _52
REMARK   22  A    between atoms: _52  and  _53
REMARK   23  A    between atoms: _55  and  _57
REMARK   24  A    between atoms: _57  and  _58
REMARK   25  A    between atoms: _57  and  _60
REMARK   26  A    between atoms: _63  and  _65
REMARK   27  A    between atoms: _65  and  _66
REMARK   28  A    between atoms: _65  and  _68
REMARK   29  A    between atoms: _70  and  _72
REMARK   30  A    between atoms: _72  and  _73
REMARK   31  A    between atoms: _76  and  _78
REMARK   32  A    between atoms: _78  and  _79
REMARK   33  A    between atoms: _78  and  _81
REMARK   34  A    between atoms: _81  and  _82
REMARK   35  A    between atoms: _82  and  _83
REMARK   36  A    between atoms: _83  and  _84
REMARK   37  A    between atoms: _93  and  _95
REMARK   38  A    between atoms: _95  and  _96
REMARK   39  A    between atoms: _95  and  _98
REMARK   40  A    between atoms: _101  and  _103
REMARK   41  A    between atoms: _103  and  _104
REMARK   42  A    between atoms: _107  and  _109
REMARK   43  A    between atoms: _109  and  _110
REMARK   44  A    between atoms: _109  and  _112
REMARK   45  A    between atoms: _115  and  _117
REMARK   46  A    between atoms: _117  and  _118
REMARK   47  A    between atoms: _117  and  _120
REMARK   48  A    between atoms: _120  and  _121
REMARK   49  A    between atoms: _121  and  _122
REMARK   50  A    between atoms: _122  and  _123
REMARK   51  A    between atoms: _123  and  _124
REMARK   52  A    between atoms: _128  and  _130
REMARK   53  A    between atoms: _130  and  _131
REMARK   54  A    between atoms: _130  and  _133
REMARK   55  A    between atoms: _133  and  _134
REMARK   56  A    between atoms: _134  and  _135
REMARK   57  A    between atoms: _135  and  _136
REMARK   58  A    between atoms: _136  and  _137
REMARK   59  A    between atoms: _141  and  _143
REMARK   60  A    between atoms: _143  and  _144
REMARK   61  A    between atoms: _143  and  _146
REMARK   62  A    between atoms: _146  and  _147
REMARK   63  A    between atoms: _150  and  _152
REMARK   64  A    between atoms: _152  and  _153
REMARK   65  A    between atoms: _152  and  _155
REMARK   66  A    between atoms: _155  and  _156
REMARK   67  A    between atoms: _156  and  _157
REMARK   68  A    between atoms: _157  and  _158
REMARK   69  A    between atoms: _167  and  _169
REMARK   70  A    between atoms: _169  and  _170
REMARK   71  A    between atoms: _169  and  _172
REMARK   72  A    between atoms: _172  and  _173
REMARK   73  A    between atoms: _173  and  _174
REMARK   74  A    between atoms: _174  and  _175
REMARK   75  A    between atoms: _184  and  _186
REMARK   76  A    between atoms: _186  and  _187
REMARK   77  A    between atoms: _186  and  _189
REMARK   78  A    between atoms: _189  and  _190
REMARK   79  A    between atoms: _190  and  _191
REMARK   80  A    between atoms: _194  and  _196
REMARK   81  A    between atoms: _196  and  _197
REMARK   82  A    between atoms: _196  and  _199
REMARK   83  A    between atoms: _199  and  _200
REMARK   84  A    between atoms: _203  and  _205
REMARK   85  A    between atoms: _205  and  _206
REMARK   86  A    between atoms: _205  and  _208
REMARK   87  A    between atoms: _208  and  _209
REMARK   88  A    between atoms: _209  and  _210
REMARK   89  A    between atoms: _210  and  _211
REMARK   90  A    between atoms: _220  and  _222
REMARK   91  A    between atoms: _222  and  _223
REMARK   92  A    between atoms: _222  and  _225
REMARK   93  A    between atoms: _225  and  _226
REMARK   94  A    between atoms: _229  and  _231
REMARK   95  A    between atoms: _231  and  _232
REMARK   96  A    between atoms: _231  and  _234
REMARK   97  A    between atoms: _234  and  _235
REMARK   98  A    between atoms: _238  and  _240
REMARK   99  A    between atoms: _240  and  _241
REMARK  100  A    between atoms: _240  and  _243
REMARK  101  A    between atoms: _243  and  _244
REMARK  102  A    between atoms: _244  and  _245
REMARK  103  A    between atoms: _245  and  _246
REMARK  104  A    between atoms: _246  and  _247
REMARK  105  A    between atoms: _251  and  _253
REMARK  106  A    between atoms: _253  and  _254
REMARK  107  A    between atoms: _253  and  _256
REMARK  108  A    between atoms: _256  and  _257
REMARK  109  A    between atoms: _262  and  _264
REMARK  110  A    between atoms: _264  and  _265
REMARK  111  A    between atoms: _264  and  _267
REMARK  112  A    between atoms: _267  and  _268
REMARK  113  A    between atoms: _268  and  _269
REMARK  114  A    between atoms: _271  and  _273
REMARK  115  A    between atoms: _273  and  _274
REMARK  116  A    between atoms: _273  and  _276
REMARK  117  A    between atoms: _279  and  _281
REMARK  118  A    between atoms: _281  and  _282
REMARK  119  A    between atoms: _281  and  _284
REMARK  120  A    between atoms: _284  and  _285
REMARK  121  A    between atoms: _288  and  _290
REMARK  122  A    between atoms: _290  and  _291
REMARK  123  A    between atoms: _293  and  _295
REMARK  124  A    between atoms: _295  and  _296
REMARK  125  A    between atoms: _295  and  _298
REMARK  126  A    between atoms: _298  and  _299
REMARK  127  A    between atoms: _302  and  _304
REMARK  128  A    between atoms: _304  and  _305
REMARK  129  A    between atoms: _304  and  _307
REMARK  130  A    between atoms: _307  and  _308
REMARK  131  A    between atoms: _311  and  _313
REMARK  132  A    between atoms: _313  and  _314
REMARK  133  A    between atoms: _313  and  _316
REMARK  134  A    between atoms: _316  and  _317
REMARK  135  A    between atoms: _320  and  _322
REMARK  136  A    between atoms: _322  and  _323
REMARK  137  A    between atoms: _322  and  _325
REMARK  138  A    between atoms: _325  and  _326
REMARK  139  A    between atoms: _331  and  _332
REMARK  140  A    between atoms: _334  and  _336
REMARK  141  A    between atoms: _336  and  _337
REMARK  142  A    between atoms: _336  and  _339
REMARK  143  A    between atoms: _339  and  _340
REMARK  144  A    between atoms: _343  and  _345
REMARK  145  A    between atoms: _345  and  _346
REMARK  146  A    between atoms: _345  and  _348
REMARK  147  A    between atoms: _351  and  _353
REMARK  148  A    between atoms: _353  and  _354
REMARK  149  A    between atoms: _353  and  _356
REMARK  150  A    between atoms: _356  and  _357
REMARK  151  A    between atoms: _360  and  _362
REMARK  152  A    between atoms: _362  and  _363
REMARK  153  A    between atoms: _362  and  _365
REMARK  154  A    between atoms: _365  and  _366
REMARK  155  A    between atoms: _371  and  _373
REMARK  156  A    between atoms: _373  and  _374
REMARK  157  A    between atoms: _373  and  _376
REMARK  158  A    between atoms: _376  and  _377
REMARK  159  A    between atoms: _380  and  _382
REMARK  160  A    between atoms: _382  and  _383
REMARK  161  A    between atoms: _382  and  _385
REMARK  162  A    between atoms: _385  and  _386
REMARK  163  A    between atoms: _386  and  _387
REMARK  164  A    between atoms: _389  and  _391
REMARK  165  A    between atoms: _391  and  _392
REMARK  166  A    between atoms: _394  and  _396
REMARK  167  A    between atoms: _396  and  _397
REMARK  168  A    between atoms: _400  and  _402
REMARK  169  A    between atoms: _402  and  _403
REMARK  170  A    between atoms: _402  and  _405
REMARK  171  A    between atoms: _405  and  _406
REMARK  172  A    between atoms: _409  and  _411
REMARK  173  A    between atoms: _411  and  _412
REMARK  174  A    between atoms: _411  and  _414
REMARK  175  A    between atoms: _414  and  _415
REMARK  176  A    between atoms: _418  and  _420
REMARK  177  A    between atoms: _420  and  _421
REMARK  178  A    between atoms: _420  and  _423
REMARK  179  A    between atoms: _423  and  _424
REMARK  180  A    between atoms: _429  and  _431
REMARK  181  A    between atoms: _431  and  _432
REMARK  182  A    between atoms: _431  and  _434
REMARK  183  A    between atoms: _434  and  _435
REMARK  184  A    between atoms: _440  and  _442
REMARK  185  A    between atoms: _442  and  _443
REMARK  186  A    between atoms: _442  and  _445
REMARK  187  A    between atoms: _445  and  _446
REMARK  188  A    between atoms: _449  and  _451
REMARK  189  A    between atoms: _451  and  _452
REMARK  190  A    between atoms: _451  and  _454
REMARK  191  A    between atoms: _454  and  _455
REMARK  192  A    between atoms: _458  and  _460
REMARK  193  A    between atoms: _460  and  _461
REMARK  194  A    between atoms: _460  and  _463
REMARK  195  A    between atoms: _463  and  _464
REMARK  196  A    between atoms: _470  and  _471
REMARK  197  A    between atoms: _476  and  _478
REMARK  198  A    between atoms: _478  and  _479
REMARK  199  A    between atoms: _478  and  _481
REMARK  200  A    between atoms: _481  and  _482
REMARK  201  A    between atoms: _484  and  _486
REMARK  202  A    between atoms: _486  and  _487
REMARK  203  A    between atoms: _486  and  _489
REMARK  204  A    between atoms: _489  and  _490
REMARK  205  A    between atoms: _495  and  _497
REMARK  206  A    between atoms: _497  and  _498
REMARK  207  A    between atoms: _497  and  _500
REMARK  208  A    between atoms: _500  and  _501
REMARK  209  A    between atoms: _504  and  _506
REMARK  210  A    between atoms: _506  and  _507
REMARK  211  A    between atoms: _510  and  _512
REMARK  212  A    between atoms: _512  and  _513
REMARK  213  A    between atoms: _512  and  _515
REMARK  214  A    between atoms: _518  and  _520
REMARK  215  A    between atoms: _520  and  _521
REMARK  216  A    between atoms: _520  and  _523
REMARK  217  A    between atoms: _523  and  _524
REMARK  218  A    between atoms: _529  and  _531
REMARK  219  A    between atoms: _531  and  _532
REMARK  220  A    between atoms: _531  and  _534
REMARK  221  A    between atoms: _534  and  _535
REMARK  222  A    between atoms: _535  and  _536
REMARK  223  A    between atoms: _536  and  _537
REMARK  224  A    between atoms: _537  and  _538
REMARK  225  A    between atoms: _542  and  _544
REMARK  226  A    between atoms: _544  and  _545
REMARK  227  A    between atoms: _544  and  _547
REMARK  228  A    between atoms: _547  and  _548
REMARK  229  A    between atoms: _551  and  _553
REMARK  230  A    between atoms: _553  and  _554
REMARK  231  A    between atoms: _553  and  _556
REMARK  232  A    between atoms: _556  and  _557
REMARK  233  A    between atoms: _560  and  _562
REMARK  234  A    between atoms: _562  and  _563
REMARK  235  A    between atoms: _562  and  _565
REMARK  236  A    between atoms: _565  and  _566
REMARK  237  A    between atoms: _569  and  _571
REMARK  238  A    between atoms: _571  and  _572
REMARK  239  A    between atoms: _571  and  _574
REMARK  240  A    between atoms: _574  and  _575
REMARK  241  A    between atoms: _581  and  _583
REMARK  242  A    between atoms: _583  and  _584
REMARK  243  A    between atoms: _586  and  _588
REMARK  244  A    between atoms: _588  and  _589
REMARK  245  A    between atoms: _588  and  _591
REMARK  246  A    between atoms: _591  and  _592
REMARK  247  A    between atoms: _595  and  _597
REMARK  248  A    between atoms: _597  and  _598
REMARK  249  A    between atoms: _601  and  _603
REMARK  250  A    between atoms: _603  and  _604
REMARK  251  A    between atoms: _603  and  _606
REMARK  252  A    between atoms: _606  and  _607
REMARK  253  A    between atoms: _607  and  _608
REMARK  254  A    between atoms: _608  and  _609
REMARK  255  A    between atoms: _618  and  _620
REMARK  256  A    between atoms: _620  and  _621
REMARK  257  A    between atoms: _620  and  _623
REMARK  258  A    between atoms: _623  and  _624
REMARK  259  A    between atoms: _629  and  _630
REMARK                            x       y       z     vdW  Elec       q    Type
REMARK                         _______ _______ _______ _____ _____    ______ ____
ROOT
ATOM      1  CA  VAL A   4       7.216   9.242  25.188  0.00  0.00    +0.149 C 
ENDROOT
BRANCH   1   2
ATOM      2  C   VAL A   4       6.907  10.703  24.804  0.00  0.00    +0.241 C 
ATOM      3  N   LYS A   5       7.603  11.663  25.429  0.00  0.00    -0.297 N 
ATOM      4  H   LYS A   5       8.282  11.405  26.173  0.00  0.00    +0.150 HD
ATOM      5  O   VAL A   4       6.107  10.946  23.897  0.00  0.00    -0.273 OA
BRANCH   3   6
ATOM      6  CA  LYS A   5       7.418  13.065  25.077  0.00  0.00    +0.149 C 
BRANCH   6   7
ATOM      7  C   LYS A   5       8.602  13.645  24.308  0.00  0.00    +0.241 C 
ATOM      8  O   LYS A   5       9.740  13.635  24.786  0.00  0.00    -0.273 OA
ATOM      9  N   LYS A   6       8.315  14.209  23.130  0.00  0.00    -0.297 N 
ATOM     10  H   LYS A   6       7.354  14.136  22.740  0.00  0.00    +0.150 HD
BRANCH   9  11
ATOM     11  CA  LYS A   6       9.338  14.920  22.399  0.00  0.00    +0.149 C 
BRANCH  11  12
ATOM     12  C   LYS A   6       9.160  16.390  22.829  0.00  0.00    +0.241 C 
ATOM     13  N   LEU A   7      10.152  16.947  23.519  0.00  0.00    -0.298 N 
ATOM     14  H   LEU A   7      10.992  16.376  23.743  0.00  0.00    +0.150 HD
ATOM     15  O   LYS A   6       8.117  16.991  22.558  0.00  0.00    -0.273 OA
BRANCH  13  16
ATOM     16  CA  LEU A   7      10.099  18.335  23.972  0.00  0.00    +0.137 C 
BRANCH  16  17
ATOM     17  C   LEU A   7      10.064  19.302  22.799  0.00  0.00    +0.227 C 
ATOM     18  O   LEU A   7      10.814  19.138  21.829  0.00  0.00    -0.286 OA
ENDBRANCH  16  17
BRANCH  16  19
ATOM     19  CB  LEU A   7      11.247  18.681  24.944  0.00  0.00    +0.028 C 
BRANCH  19  20
ATOM     20  CG  LEU A   7      11.201  18.030  26.333  0.00  0.00    +0.002 C 
ATOM     21  CD2 LEU A   7      12.339  18.509  27.165  0.00  0.00    +0.000 C 
ATOM     22  CD1 LEU A   7       9.893  18.333  27.075  0.00  0.00    +0.000 C 
ENDBRANCH  19  20
ENDBRANCH  16  19
ENDBRANCH  13  16
ENDBRANCH  11  12
BRANCH  11  23
ATOM     23  CB  LYS A   6       9.191  14.745  20.872  0.00  0.00    +0.029 C 
BRANCH  23  24
ATOM     24  CG  LYS A   6      10.359  15.392  20.138  0.00  0.00    +0.000 C 
BRANCH  24  25
ATOM     25  CD  LYS A   6      10.122  15.478  18.661  0.00  0.00    -0.024 C 
BRANCH  25  26
ATOM     26  CE  LYS A   6      11.251  16.216  17.995  0.00  0.00    -0.086 C 
BRANCH  26  27
ATOM     27  NZ  LYS A   6      11.049  16.304  16.532  0.00  0.00    +0.380 N 
ATOM     28  HZ1 LYS A   6      10.162  16.810  16.336  0.00  0.00    -0.089 HD
ATOM     29  HZ2 LYS A   6      10.999  15.345  16.132  0.00  0.00    -0.089 HD
ATOM     30  HZ3 LYS A   6      11.845  16.819  16.104  0.00  0.00    -0.089 HD
ENDBRANCH  26  27
ENDBRANCH  25  26
ENDBRANCH  24  25
ENDBRANCH  23  24
ENDBRANCH  11  23
ENDBRANCH   9  11
ENDBRANCH   6   7
BRANCH   6  31
ATOM     31  CB  LYS A   5       7.077  13.926  26.309  0.00  0.00    +0.029 C 
BRANCH  31  32
ATOM     32  CG  LYS A   5       7.072  15.451  26.042  0.00  0.00    +0.000 C 
BRANCH  32  33
ATOM     33  CD  LYS A   5       6.342  16.338  27.042  0.00  0.00    -0.024 C 
BRANCH  33  34
ATOM     34  CE  LYS A   5       6.815  16.226  28.478  0.00  0.00    -0.086 C 
BRANCH  34  35
ATOM     35  NZ  LYS A   5       6.254  17.323  29.302  0.00  0.00    +0.380 N 
ATOM     36  HZ1 LYS A   5       6.591  17.227  30.281  0.00  0.00    -0.089 HD
ATOM     37  HZ2 LYS A   5       5.215  17.272  29.285  0.00  0.00    -0.089 HD
ATOM     38  HZ3 LYS A   5       6.563  18.238  28.916  0.00  0.00    -0.089 HD
ENDBRANCH  34  35
ENDBRANCH  33  34
ENDBRANCH  32  33
ENDBRANCH  31  32
ENDBRANCH   6  31
ENDBRANCH   3   6
ENDBRANCH   1   2
BRANCH   1  41
ATOM     39  C   ALA A   3       5.854   8.214  26.979  0.00  0.00    +0.241 C 
ATOM     40  O   ALA A   3       6.771   8.227  27.814  0.00  0.00    -0.273 OA
ATOM     41  N   VAL A   4       6.003   8.626  25.714  0.00  0.00    -0.297 N 
ATOM     42  H   VAL A   4       5.201   8.499  25.064  0.00  0.00    +0.150 HD
BRANCH  39  43
ATOM     43  CA  ALA A   3       4.515   7.568  27.326  0.00  0.00    +0.149 C 
ATOM     44  CB  ALA A   3       3.765   8.396  28.375  0.00  0.00    +0.031 C 
BRANCH  43  46
ATOM     45  C   VAL A   2       4.633   5.089  27.250  0.00  0.00    +0.241 C 
ATOM     46  N   ALA A   3       4.888   6.263  27.858  0.00  0.00    -0.297 N 
ATOM     47  H   ALA A   3       5.386   6.237  28.771  0.00  0.00    +0.150 HD
ATOM     48  O   VAL A   2       3.969   4.977  26.219  0.00  0.00    -0.273 OA
BRANCH  45  49
ATOM     49  CA  VAL A   2       5.228   3.858  27.905  0.00  0.00    +0.148 C 
BRANCH  49  52
ATOM     50  C   ARG A   1       3.962   1.797  28.309  0.00  0.00    +0.238 C 
ATOM     51  O   ARG A   1       3.888   1.992  29.520  0.00  0.00    -0.274 OA
ATOM     52  N   VAL A   2       4.571   2.623  27.475  0.00  0.00    -0.297 N 
ATOM     53  H   VAL A   2       4.584   2.383  26.463  0.00  0.00    +0.150 HD
BRANCH  50  54
ATOM     54  CA  ARG A   1       3.426   0.516  27.710  0.00  0.00    +0.145 C 
BRANCH  54  55
ATOM     55  N   ARG A   1       4.073  -0.490  28.534  0.00  0.00    -0.238 NA
ATOM     56  H   ARG A   1       3.568  -0.811  29.385  0.00  0.00    +0.142 HD
ENDBRANCH  54  55
BRANCH  54  57
ATOM     57  CB  ARG A   1       1.901   0.452  27.833  0.00  0.00    +0.030 C 
BRANCH  57  58
ATOM     58  CG  ARG A   1       1.309  -0.631  26.953  0.00  0.00    +0.045 C 
BRANCH  58  59
ATOM     59  CD  ARG A   1      -0.077  -0.248  26.469  0.00  0.00    +0.174 C 
BRANCH  59  60
ATOM     60  NE  ARG A   1      -0.037   0.690  25.342  0.00  0.00    -0.265 N 
ATOM     61  CZ  ARG A   1      -1.045   1.483  24.990  0.00  0.00    +0.342 C 
ATOM     62  NH2 ARG A   1      -2.175   1.486  25.689  0.00  0.00    -0.292 N 
ATOM     63 HH21 ARG A   1      -2.276   0.865  26.518  0.00  0.00    +0.255 HD
ATOM     64 HH22 ARG A   1      -2.959   2.109  25.408  0.00  0.00    +0.255 HD
ATOM     65  NH1 ARG A   1      -0.929   2.286  23.942  0.00  0.00    -0.292 N 
ATOM     66 HH11 ARG A   1      -1.720   2.904  23.671  0.00  0.00    +0.255 HD
ATOM     67 HH12 ARG A   1      -0.047   2.298  23.391  0.00  0.00    +0.255 HD
ATOM     68  HE  ARG A   1       0.837   0.738  24.781  0.00  0.00    +0.259 HD
ENDBRANCH  59  60
ENDBRANCH  58  59
ENDBRANCH  57  58
ENDBRANCH  54  57
ENDBRANCH  50  54
ENDBRANCH  49  52
BRANCH  49  69
ATOM     69  CB  VAL A   2       6.768   3.805  27.663  0.00  0.00    +0.027 C 
ATOM     70  CG2 VAL A   2       7.431   2.720  28.500  0.00  0.00    +0.002 C 
ATOM     71  CG1 VAL A   2       7.089   3.627  26.177  0.00  0.00    +0.002 C 
ENDBRANCH  49  69
ENDBRANCH  45  49
ENDBRANCH  43  46
ENDBRANCH  39  43
ENDBRANCH   1  41
BRANCH   1  72
ATOM     72  CB  VAL A   4       7.817   8.473  23.959  0.00  0.00    +0.027 C 
ATOM     73  CG2 VAL A   4       7.861   6.963  24.180  0.00  0.00    +0.002 C 
ATOM     74  CG1 VAL A   4       9.202   9.021  23.584  0.00  0.00    +0.002 C 
ENDBRANCH   1  72
TORSDOF 32
REMARK  Name = ../refined-set-2016/2yix/2yix_pocket.pdb
REMARK  259 active torsions:
REMARK  status: ('A' for Active; 'I' for Inactive)
REMARK    1  A    between atoms: _1  and  _3
REMARK    2  A    between atoms: _3  and  _4
REMARK    3  A    between atoms: _3  and  _6
REMARK    4  A    between atoms: _9  and  _11
REMARK    5  A    between atoms: _11  and  _12
REMARK    6  A    between atoms: _14  and  _16
REMARK    7  A    between atoms: _16  and  _17
REMARK    8  A    between atoms: _16  and  _19
REMARK    9  A    between atoms: _19  and  _20
REMARK   10  A    between atoms: _22  and  _24
REMARK   11  A    between atoms: _24  and  _25
REMARK   12  A    between atoms: _28  and  _30
REMARK   13  A    between atoms: _30  and  _31
REMARK   14  A    between atoms: _30  and  _33
REMARK   15  A    between atoms: _33  and  _34
REMARK   16  A    between atoms: _39  and  _40
REMARK   17  A    between atoms: _42  and  _44
REMARK   18  A    between atoms: _44  and  _45
REMARK   19  A    between atoms: _47  and  _49
REMARK   20  A    between atoms: _49  and  _50
REMARK   21  A    between atoms: _49  and  _52
REMARK   22  A    between atoms: _52  and  _53
REMARK   23  A    between atoms: _55  and  _57
REMARK   24  A    between atoms: _57  and  _58
REMARK   25  A    between atoms: _57  and  _60
REMARK   26  A    between atoms: _63  and  _65
REMARK   27  A    between atoms: _65  and  _66
REMARK   28  A    between atoms: _65  and  _68
REMARK   29  A    between atoms: _70  and  _72
REMARK   30  A    between atoms: _72  and  _73
REMARK   31  A    between atoms: _76  and  _78
REMARK   32  A    between atoms: _78  and  _79
REMARK   33  A    between atoms: _78  and  _81
REMARK   34  A    between atoms: _81  and  _82
REMARK   35  A    between atoms: _82  and  _83
REMARK   36  A    between atoms: _83  and  _84
REMARK   37  A    between atoms: _93  and  _95
REMARK   38  A    between atoms: _95  and  _96
REMARK   39  A    between atoms: _95  and  _98
REMARK   40  A    between atoms: _101  and  _103
REMARK   41  A    between atoms: _103  and  _104
REMARK   42  A    between atoms: _107  and  _109
REMARK   43  A    between atoms: _109  and  _110
REMARK   44  A    between atoms: _109  and  _112
REMARK   45  A    between atoms: _115  and  _117
REMARK   46  A    between atoms: _117  and  _118
REMARK   47  A    between atoms: _117  and  _120
REMARK   48  A    between atoms: _120  and  _121
REMARK   49  A    between atoms: _121  and  _122
REMARK   50  A    between atoms: _122  and  _123
REMARK   51  A    between atoms: _123  and  _124
REMARK   52  A    between atoms: _128  and  _130
REMARK   53  A    between atoms: _130  and  _131
REMARK   54  A    between atoms: _130  and  _133
REMARK   55  A    between atoms: _133  and  _134
REMARK   56  A    between atoms: _134  and  _135
REMARK   57  A    between atoms: _135  and  _136
REMARK   58  A    between atoms: _136  and  _137
REMARK   59  A    between atoms: _141  and  _143
REMARK   60  A    between atoms: _143  and  _144
REMARK   61  A    between atoms: _143  and  _146
REMARK   62  A    between atoms: _146  and  _147
REMARK   63  A    between atoms: _150  and  _152
REMARK   64  A    between atoms: _152  and  _153
REMARK   65  A    between atoms: _152  and  _155
REMARK   66  A    between atoms: _155  and  _156
REMARK   67  A    between atoms: _156  and  _157
REMARK   68  A    between atoms: _157  and  _158
REMARK   69  A    between atoms: _167  and  _169
REMARK   70  A    between atoms: _169  and  _170
REMARK   71  A    between atoms: _169  and  _172
REMARK   72  A    between atoms: _172  and  _173
REMARK   73  A    between atoms: _173  and  _174
REMARK   74  A    between atoms: _174  and  _175
REMARK   75  A    between atoms: _184  and  _186
REMARK   76  A    between atoms: _186  and  _187
REMARK   77  A    between atoms: _186  and  _189
REMARK   78  A    between atoms: _189  and  _190
REMARK   79  A    between atoms: _190  and  _191
REMARK   80  A    between atoms: _194  and  _196
REMARK   81  A    between atoms: _196  and  _197
REMARK   82  A    between atoms: _196  and  _199
REMARK   83  A    between atoms: _199  and  _200
REMARK   84  A    between atoms: _203  and  _205
REMARK   85  A    between atoms: _205  and  _206
REMARK   86  A    between atoms: _205  and  _208
REMARK   87  A    between atoms: _208  and  _209
REMARK   88  A    between atoms: _209  and  _210
REMARK   89  A    between atoms: _210  and  _211
REMARK   90  A    between atoms: _220  and  _222
REMARK   91  A    between atoms: _222  and  _223
REMARK   92  A    between atoms: _222  and  _225
REMARK   93  A    between atoms: _225  and  _226
REMARK   94  A    between atoms: _229  and  _231
REMARK   95  A    between atoms: _231  and  _232
REMARK   96  A    between atoms: _231  and  _234
REMARK   97  A    between atoms: _234  and  _235
REMARK   98  A    between atoms: _238  and  _240
REMARK   99  A    between atoms: _240  and  _241
REMARK  100  A    between atoms: _240  and  _243
REMARK  101  A    between atoms: _243  and  _244
REMARK  102  A    between atoms: _244  and  _245
REMARK  103  A    between atoms: _245  and  _246
REMARK  104  A    between atoms: _246  and  _247
REMARK  105  A    between atoms: _251  and  _253
REMARK  106  A    between atoms: _253  and  _254
REMARK  107  A    between atoms: _253  and  _256
REMARK  108  A    between atoms: _256  and  _257
REMARK  109  A    between atoms: _262  and  _264
REMARK  110  A    between atoms: _264  and  _265
REMARK  111  A    between atoms: _264  and  _267
REMARK  112  A    between atoms: _267  and  _268
REMARK  113  A    between atoms: _268  and  _269
REMARK  114  A    between atoms: _271  and  _273
REMARK  115  A    between atoms: _273  and  _274
REMARK  116  A    between atoms: _273  and  _276
REMARK  117  A    between atoms: _279  and  _281
REMARK  118  A    between atoms: _281  and  _282
REMARK  119  A    between atoms: _281  and  _284
REMARK  120  A    between atoms: _284  and  _285
REMARK  121  A    between atoms: _288  and  _290
REMARK  122  A    between atoms: _290  and  _291
REMARK  123  A    between atoms: _293  and  _295
REMARK  124  A    between atoms: _295  and  _296
REMARK  125  A    between atoms: _295  and  _298
REMARK  126  A    between atoms: _298  and  _299
REMARK  127  A    between atoms: _302  and  _304
REMARK  128  A    between atoms: _304  and  _305
REMARK  129  A    between atoms: _304  and  _307
REMARK  130  A    between atoms: _307  and  _308
REMARK  131  A    between atoms: _311  and  _313
REMARK  132  A    between atoms: _313  and  _314
REMARK  133  A    between atoms: _313  and  _316
REMARK  134  A    between atoms: _316  and  _317
REMARK  135  A    between atoms: _320  and  _322
REMARK  136  A    between atoms: _322  and  _323
REMARK  137  A    between atoms: _322  and  _325
REMARK  138  A    between atoms: _325  and  _326
REMARK  139  A    between atoms: _331  and  _332
REMARK  140  A    between atoms: _334  and  _336
REMARK  141  A    between atoms: _336  and  _337
REMARK  142  A    between atoms: _336  and  _339
REMARK  143  A    between atoms: _339  and  _340
REMARK  144  A    between atoms: _343  and  _345
REMARK  145  A    between atoms: _345  and  _346
REMARK  146  A    between atoms: _345  and  _348
REMARK  147  A    between atoms: _351  and  _353
REMARK  148  A    between atoms: _353  and  _354
REMARK  149  A    between atoms: _353  and  _356
REMARK  150  A    between atoms: _356  and  _357
REMARK  151  A    between atoms: _360  and  _362
REMARK  152  A    between atoms: _362  and  _363
REMARK  153  A    between atoms: _362  and  _365
REMARK  154  A    between atoms: _365  and  _366
REMARK  155  A    between atoms: _371  and  _373
REMARK  156  A    between atoms: _373  and  _374
REMARK  157  A    between atoms: _373  and  _376
REMARK  158  A    between atoms: _376  and  _377
REMARK  159  A    between atoms: _380  and  _382
REMARK  160  A    between atoms: _382  and  _383
REMARK  161  A    between atoms: _382  and  _385
REMARK  162  A    between atoms: _385  and  _386
REMARK  163  A    between atoms: _386  and  _387
REMARK  164  A    between atoms: _389  and  _391
REMARK  165  A    between atoms: _391  and  _392
REMARK  166  A    between atoms: _394  and  _396
REMARK  167  A    between atoms: _396  and  _397
REMARK  168  A    between atoms: _400  and  _402
REMARK  169  A    between atoms: _402  and  _403
REMARK  170  A    between atoms: _402  and  _405
REMARK  171  A    between atoms: _405  and  _406
REMARK  172  A    between atoms: _409  and  _411
REMARK  173  A    between atoms: _411  and  _412
REMARK  174  A    between atoms: _411  and  _414
REMARK  175  A    between atoms: _414  and  _415
REMARK  176  A    between atoms: _418  and  _420
REMARK  177  A    between atoms: _420  and  _421
REMARK  178  A    between atoms: _420  and  _423
REMARK  179  A    between atoms: _423  and  _424
REMARK  180  A    between atoms: _429  and  _431
REMARK  181  A    between atoms: _431  and  _432
REMARK  182  A    between atoms: _431  and  _434
REMARK  183  A    between atoms: _434  and  _435
REMARK  184  A    between atoms: _440  and  _442
REMARK  185  A    between atoms: _442  and  _443
REMARK  186  A    between atoms: _442  and  _445
REMARK  187  A    between atoms: _445  and  _446
REMARK  188  A    between atoms: _449  and  _451
REMARK  189  A    between atoms: _451  and  _452
REMARK  190  A    between atoms: _451  and  _454
REMARK  191  A    between atoms: _454  and  _455
REMARK  192  A    between atoms: _458  and  _460
REMARK  193  A    between atoms: _460  and  _461
REMARK  194  A    between atoms: _460  and  _463
REMARK  195  A    between atoms: _463  and  _464
REMARK  196  A    between atoms: _470  and  _471
REMARK  197  A    between atoms: _476  and  _478
REMARK  198  A    between atoms: _478  and  _479
REMARK  199  A    between atoms: _478  and  _481
REMARK  200  A    between atoms: _481  and  _482
REMARK  201  A    between atoms: _484  and  _486
REMARK  202  A    between atoms: _486  and  _487
REMARK  203  A    between atoms: _486  and  _489
REMARK  204  A    between atoms: _489  and  _490
REMARK  205  A    between atoms: _495  and  _497
REMARK  206  A    between atoms: _497  and  _498
REMARK  207  A    between atoms: _497  and  _500
REMARK  208  A    between atoms: _500  and  _501
REMARK  209  A    between atoms: _504  and  _506
REMARK  210  A    between atoms: _506  and  _507
REMARK  211  A    between atoms: _510  and  _512
REMARK  212  A    between atoms: _512  and  _513
REMARK  213  A    between atoms: _512  and  _515
REMARK  214  A    between atoms: _518  and  _520
REMARK  215  A    between atoms: _520  and  _521
REMARK  216  A    between atoms: _520  and  _523
REMARK  217  A    between atoms: _523  and  _524
REMARK  218  A    between atoms: _529  and  _531
REMARK  219  A    between atoms: _531  and  _532
REMARK  220  A    between atoms: _531  and  _534
REMARK  221  A    between atoms: _534  and  _535
REMARK  222  A    between atoms: _535  and  _536
REMARK  223  A    between atoms: _536  and  _537
REMARK  224  A    between atoms: _537  and  _538
REMARK  225  A    between atoms: _542  and  _544
REMARK  226  A    between atoms: _544  and  _545
REMARK  227  A    between atoms: _544  and  _547
REMARK  228  A    between atoms: _547  and  _548
REMARK  229  A    between atoms: _551  and  _553
REMARK  230  A    between atoms: _553  and  _554
REMARK  231  A    between atoms: _553  and  _556
REMARK  232  A    between atoms: _556  and  _557
REMARK  233  A    between atoms: _560  and  _562
REMARK  234  A    between atoms: _562  and  _563
REMARK  235  A    between atoms: _562  and  _565
REMARK  236  A    between atoms: _565  and  _566
REMARK  237  A    between atoms: _569  and  _571
REMARK  238  A    between atoms: _571  and  _572
REMARK  239  A    between atoms: _571  and  _574
REMARK  240  A    between atoms: _574  and  _575
REMARK  241  A    between atoms: _581  and  _583
REMARK  242  A    between atoms: _583  and  _584
REMARK  243  A    between atoms: _586  and  _588
REMARK  244  A    between atoms: _588  and  _589
REMARK  245  A    between atoms: _588  and  _591
REMARK  246  A    between atoms: _591  and  _592
REMARK  247  A    between atoms: _595  and  _597
REMARK  248  A    between atoms: _597  and  _598
REMARK  249  A    between atoms: _601  and  _603
REMARK  250  A    between atoms: _603  and  _604
REMARK  251  A    between atoms: _603  and  _606
REMARK  252  A    between atoms: _606  and  _607
REMARK  253  A    between atoms: _607  and  _608
REMARK  254  A    between atoms: _608  and  _609
REMARK  255  A    between atoms: _618  and  _620
REMARK  256  A    between atoms: _620  and  _621
REMARK  257  A    between atoms: _620  and  _623
REMARK  258  A    between atoms: _623  and  _624
REMARK  259  A    between atoms: _629  and  _630
REMARK                            x       y       z     vdW  Elec       q    Type
REMARK                         _______ _______ _______ _____ _____    ______ ____
ROOT
ATOM      1  NE  ARG A   1       8.283  27.240  30.947  0.00  0.00    -0.265 N 
ATOM      2  CZ  ARG A   1       7.517  28.258  31.323  0.00  0.00    +0.342 C 
ATOM      3  NH2 ARG A   1       8.030  29.267  32.013  0.00  0.00    -0.292 N 
ATOM      4 HH21 ARG A   1       7.423  30.060  32.303  0.00  0.00    +0.255 HD
ATOM      5 HH22 ARG A   1       9.039  29.265  32.264  0.00  0.00    +0.255 HD
ATOM      6  NH1 ARG A   1       6.229  28.261  31.039  0.00  0.00    -0.292 N 
ATOM      7 HH11 ARG A   1       5.633  29.060  31.335  0.00  0.00    +0.255 HD
ATOM      8 HH12 ARG A   1       5.809  27.464  30.519  0.00  0.00    +0.255 HD
ATOM      9  HE  ARG A   1       7.825  26.442  30.462  0.00  0.00    +0.259 HD
ENDROOT
BRANCH   1  10
ATOM     10  CD  ARG A   1       9.726  27.165  31.168  0.00  0.00    +0.174 C 
BRANCH  10  11
ATOM     11  CG  ARG A   1      10.171  25.854  31.742  0.00  0.00    +0.045 C 
BRANCH  11  12
ATOM     12  CB  ARG A   1      11.265  25.197  30.925  0.00  0.00    +0.029 C 
BRANCH  12  13
ATOM     13  CA  ARG A   1      12.391  24.620  31.809  0.00  0.00    +0.133 C 
BRANCH  13  14
ATOM     14  N   ARG A   1      13.592  25.453  31.715  0.00  0.00    -0.239 NA
ATOM     15  H   ARG A   1      13.579  26.225  31.018  0.00  0.00    +0.142 HD
ENDBRANCH  13  14
BRANCH  13  16
ATOM     16  C   ARG A   1      12.686  23.171  31.431  0.00  0.00    +0.224 C 
ATOM     17  O   ARG A   1      12.245  22.249  32.114  0.00  0.00    -0.287 OA
ENDBRANCH  13  16
ENDBRANCH  12  13
ENDBRANCH  11  12
ENDBRANCH  10  11
ENDBRANCH   1  10
TORSDOF 6
REMARK  Name = ../refined-set-2016/2yix/2yix_pocket.pdb
REMARK  259 active torsions:
REMARK  status: ('A' for Active; 'I' for Inactive)
REMARK    1  A    between atoms: _1  and  _3
REMARK    2  A    between atoms: _3  and  _4
REMARK    3  A    between atoms: _3  and  _6
REMARK    4  A    between atoms: _9  and  _11
REMARK    5  A    between atoms: _11  and  _12
REMARK    6  A    between atoms: _14  and  _16
REMARK    7  A    between atoms: _16  and  _17
REMARK    8  A    between atoms: _16  and  _19
REMARK    9  A    between atoms: _19  and  _20
REMARK   10  A    between atoms: _22  and  _24
REMARK   11  A    between atoms: _24  and  _25
REMARK   12  A    between atoms: _28  and  _30
REMARK   13  A    between atoms: _30  and  _31
REMARK   14  A    between atoms: _30  and  _33
REMARK   15  A    between atoms: _33  and  _34
REMARK   16  A    between atoms: _39  and  _40
REMARK   17  A    between atoms: _42  and  _44
REMARK   18  A    between atoms: _44  and  _45
REMARK   19  A    between atoms: _47  and  _49
REMARK   20  A    between atoms: _49  and  _50
REMARK   21  A    between atoms: _49  and  _52
REMARK   22  A    between atoms: _52  and  _53
REMARK   23  A    between atoms: _55  and  _57
REMARK   24  A    between atoms: _57  and  _58
REMARK   25  A    between atoms: _57  and  _60
REMARK   26  A    between atoms: _63  and  _65
REMARK   27  A    between atoms: _65  and  _66
REMARK   28  A    between atoms: _65  and  _68
REMARK   29  A    between atoms: _70  and  _72
REMARK   30  A    between atoms: _72  and  _73
REMARK   31  A    between atoms: _76  and  _78
REMARK   32  A    between atoms: _78  and  _79
REMARK   33  A    between atoms: _78  and  _81
REMARK   34  A    between atoms: _81  and  _82
REMARK   35  A    between atoms: _82  and  _83
REMARK   36  A    between atoms: _83  and  _84
REMARK   37  A    between atoms: _93  and  _95
REMARK   38  A    between atoms: _95  and  _96
REMARK   39  A    between atoms: _95  and  _98
REMARK   40  A    between atoms: _101  and  _103
REMARK   41  A    between atoms: _103  and  _104
REMARK   42  A    between atoms: _107  and  _109
REMARK   43  A    between atoms: _109  and  _110
REMARK   44  A    between atoms: _109  and  _112
REMARK   45  A    between atoms: _115  and  _117
REMARK   46  A    between atoms: _117  and  _118
REMARK   47  A    between atoms: _117  and  _120
REMARK   48  A    between atoms: _120  and  _121
REMARK   49  A    between atoms: _121  and  _122
REMARK   50  A    between atoms: _122  and  _123
REMARK   51  A    between atoms: _123  and  _124
REMARK   52  A    between atoms: _128  and  _130
REMARK   53  A    between atoms: _130  and  _131
REMARK   54  A    between atoms: _130  and  _133
REMARK   55  A    between atoms: _133  and  _134
REMARK   56  A    between atoms: _134  and  _135
REMARK   57  A    between atoms: _135  and  _136
REMARK   58  A    between atoms: _136  and  _137
REMARK   59  A    between atoms: _141  and  _143
REMARK   60  A    between atoms: _143  and  _144
REMARK   61  A    between atoms: _143  and  _146
REMARK   62  A    between atoms: _146  and  _147
REMARK   63  A    between atoms: _150  and  _152
REMARK   64  A    between atoms: _152  and  _153
REMARK   65  A    between atoms: _152  and  _155
REMARK   66  A    between atoms: _155  and  _156
REMARK   67  A    between atoms: _156  and  _157
REMARK   68  A    between atoms: _157  and  _158
REMARK   69  A    between atoms: _167  and  _169
REMARK   70  A    between atoms: _169  and  _170
REMARK   71  A    between atoms: _169  and  _172
REMARK   72  A    between atoms: _172  and  _173
REMARK   73  A    between atoms: _173  and  _174
REMARK   74  A    between atoms: _174  and  _175
REMARK   75  A    between atoms: _184  and  _186
REMARK   76  A    between atoms: _186  and  _187
REMARK   77  A    between atoms: _186  and  _189
REMARK   78  A    between atoms: _189  and  _190
REMARK   79  A    between atoms: _190  and  _191
REMARK   80  A    between atoms: _194  and  _196
REMARK   81  A    between atoms: _196  and  _197
REMARK   82  A    between atoms: _196  and  _199
REMARK   83  A    between atoms: _199  and  _200
REMARK   84  A    between atoms: _203  and  _205
REMARK   85  A    between atoms: _205  and  _206
REMARK   86  A    between atoms: _205  and  _208
REMARK   87  A    between atoms: _208  and  _209
REMARK   88  A    between atoms: _209  and  _210
REMARK   89  A    between atoms: _210  and  _211
REMARK   90  A    between atoms: _220  and  _222
REMARK   91  A    between atoms: _222  and  _223
REMARK   92  A    between atoms: _222  and  _225
REMARK   93  A    between atoms: _225  and  _226
REMARK   94  A    between atoms: _229  and  _231
REMARK   95  A    between atoms: _231  and  _232
REMARK   96  A    between atoms: _231  and  _234
REMARK   97  A    between atoms: _234  and  _235
REMARK   98  A    between atoms: _238  and  _240
REMARK   99  A    between atoms: _240  and  _241
REMARK  100  A    between atoms: _240  and  _243
REMARK  101  A    between atoms: _243  and  _244
REMARK  102  A    between atoms: _244  and  _245
REMARK  103  A    between atoms: _245  and  _246
REMARK  104  A    between atoms: _246  and  _247
REMARK  105  A    between atoms: _251  and  _253
REMARK  106  A    between atoms: _253  and  _254
REMARK  107  A    between atoms: _253  and  _256
REMARK  108  A    between atoms: _256  and  _257
REMARK  109  A    between atoms: _262  and  _264
REMARK  110  A    between atoms: _264  and  _265
REMARK  111  A    between atoms: _264  and  _267
REMARK  112  A    between atoms: _267  and  _268
REMARK  113  A    between atoms: _268  and  _269
REMARK  114  A    between atoms: _271  and  _273
REMARK  115  A    between atoms: _273  and  _274
REMARK  116  A    between atoms: _273  and  _276
REMARK  117  A    between atoms: _279  and  _281
REMARK  118  A    between atoms: _281  and  _282
REMARK  119  A    between atoms: _281  and  _284
REMARK  120  A    between atoms: _284  and  _285
REMARK  121  A    between atoms: _288  and  _290
REMARK  122  A    between atoms: _290  and  _291
REMARK  123  A    between atoms: _293  and  _295
REMARK  124  A    between atoms: _295  and  _296
REMARK  125  A    between atoms: _295  and  _298
REMARK  126  A    between atoms: _298  and  _299
REMARK  127  A    between atoms: _302  and  _304
REMARK  128  A    between atoms: _304  and  _305
REMARK  129  A    between atoms: _304  and  _307
REMARK  130  A    between atoms: _307  and  _308
REMARK  131  A    between atoms: _311  and  _313
REMARK  132  A    between atoms: _313  and  _314
REMARK  133  A    between atoms: _313  and  _316
REMARK  134  A    between atoms: _316  and  _317
REMARK  135  A    between atoms: _320  and  _322
REMARK  136  A    between atoms: _322  and  _323
REMARK  137  A    between atoms: _322  and  _325
REMARK  138  A    between atoms: _325  and  _326
REMARK  139  A    between atoms: _331  and  _332
REMARK  140  A    between atoms: _334  and  _336
REMARK  141  A    between atoms: _336  and  _337
REMARK  142  A    between atoms: _336  and  _339
REMARK  143  A    between atoms: _339  and  _340
REMARK  144  A    between atoms: _343  and  _345
REMARK  145  A    between atoms: _345  and  _346
REMARK  146  A    between atoms: _345  and  _348
REMARK  147  A    between atoms: _351  and  _353
REMARK  148  A    between atoms: _353  and  _354
REMARK  149  A    between atoms: _353  and  _356
REMARK  150  A    between atoms: _356  and  _357
REMARK  151  A    between atoms: _360  and  _362
REMARK  152  A    between atoms: _362  and  _363
REMARK  153  A    between atoms: _362  and  _365
REMARK  154  A    between atoms: _365  and  _366
REMARK  155  A    between atoms: _371  and  _373
REMARK  156  A    between atoms: _373  and  _374
REMARK  157  A    between atoms: _373  and  _376
REMARK  158  A    between atoms: _376  and  _377
REMARK  159  A    between atoms: _380  and  _382
REMARK  160  A    between atoms: _382  and  _383
REMARK  161  A    between atoms: _382  and  _385
REMARK  162  A    between atoms: _385  and  _386
REMARK  163  A    between atoms: _386  and  _387
REMARK  164  A    between atoms: _389  and  _391
REMARK  165  A    between atoms: _391  and  _392
REMARK  166  A    between atoms: _394  and  _396
REMARK  167  A    between atoms: _396  and  _397
REMARK  168  A    between atoms: _400  and  _402
REMARK  169  A    between atoms: _402  and  _403
REMARK  170  A    between atoms: _402  and  _405
REMARK  171  A    between atoms: _405  and  _406
REMARK  172  A    between atoms: _409  and  _411
REMARK  173  A    between atoms: _411  and  _412
REMARK  174  A    between atoms: _411  and  _414
REMARK  175  A    between atoms: _414  and  _415
REMARK  176  A    between atoms: _418  and  _420
REMARK  177  A    between atoms: _420  and  _421
REMARK  178  A    between atoms: _420  and  _423
REMARK  179  A    between atoms: _423  and  _424
REMARK  180  A    between atoms: _429  and  _431
REMARK  181  A    between atoms: _431  and  _432
REMARK  182  A    between atoms: _431  and  _434
REMARK  183  A    between atoms: _434  and  _435
REMARK  184  A    between atoms: _440  and  _442
REMARK  185  A    between atoms: _442  and  _443
REMARK  186  A    between atoms: _442  and  _445
REMARK  187  A    between atoms: _445  and  _446
REMARK  188  A    between atoms: _449  and  _451
REMARK  189  A    between atoms: _451  and  _452
REMARK  190  A    between atoms: _451  and  _454
REMARK  191  A    between atoms: _454  and  _455
REMARK  192  A    between atoms: _458  and  _460
REMARK  193  A    between atoms: _460  and  _461
REMARK  194  A    between atoms: _460  and  _463
REMARK  195  A    between atoms: _463  and  _464
REMARK  196  A    between atoms: _470  and  _471
REMARK  197  A    between atoms: _476  and  _478
REMARK  198  A    between atoms: _478  and  _479
REMARK  199  A    between atoms: _478  and  _481
REMARK  200  A    between atoms: _481  and  _482
REMARK  201  A    between atoms: _484  and  _486
REMARK  202  A    between atoms: _486  and  _487
REMARK  203  A    between atoms: _486  and  _489
REMARK  204  A    between atoms: _489  and  _490
REMARK  205  A    between atoms: _495  and  _497
REMARK  206  A    between atoms: _497  and  _498
REMARK  207  A    between atoms: _497  and  _500
REMARK  208  A    between atoms: _500  and  _501
REMARK  209  A    between atoms: _504  and  _506
REMARK  210  A    between atoms: _506  and  _507
REMARK  211  A    between atoms: _510  and  _512
REMARK  212  A    between atoms: _512  and  _513
REMARK  213  A    between atoms: _512  and  _515
REMARK  214  A    between atoms: _518  and  _520
REMARK  215  A    between atoms: _520  and  _521
REMARK  216  A    between atoms: _520  and  _523
REMARK  217  A    between atoms: _523  and  _524
REMARK  218  A    between atoms: _529  and  _531
REMARK  219  A    between atoms: _531  and  _532
REMARK  220  A    between atoms: _531  and  _534
REMARK  221  A    between atoms: _534  and  _535
REMARK  222  A    between atoms: _535  and  _536
REMARK  223  A    between atoms: _536  and  _537
REMARK  224  A    between atoms: _537  and  _538
REMARK  225  A    between atoms: _542  and  _544
REMARK  226  A    between atoms: _544  and  _545
REMARK  227  A    between atoms: _544  and  _547
REMARK  228  A    between atoms: _547  and  _548
REMARK  229  A    between atoms: _551  and  _553
REMARK  230  A    between atoms: _553  and  _554
REMARK  231  A    between atoms: _553  and  _556
REMARK  232  A    between atoms: _556  and  _557
REMARK  233  A    between atoms: _560  and  _562
REMARK  234  A    between atoms: _562  and  _563
REMARK  235  A    between atoms: _562  and  _565
REMARK  236  A    between atoms: _565  and  _566
REMARK  237  A    between atoms: _569  and  _571
REMARK  238  A    between atoms: _571  and  _572
REMARK  239  A    between atoms: _571  and  _574
REMARK  240  A    between atoms: _574  and  _575
REMARK  241  A    between atoms: _581  and  _583
REMARK  242  A    between atoms: _583  and  _584
REMARK  243  A    between atoms: _586  and  _588
REMARK  244  A    between atoms: _588  and  _589
REMARK  245  A    between atoms: _588  and  _591
REMARK  246  A    between atoms: _591  and  _592
REMARK  247  A    between atoms: _595  and  _597
REMARK  248  A    between atoms: _597  and  _598
REMARK  249  A    between atoms: _601  and  _603
REMARK  250  A    between atoms: _603  and  _604
REMARK  251  A    between atoms: _603  and  _606
REMARK  252  A    between atoms: _606  and  _607
REMARK  253  A    between atoms: _607  and  _608
REMARK  254  A    between atoms: _608  and  _609
REMARK  255  A    between atoms: _618  and  _620
REMARK  256  A    between atoms: _620  and  _621
REMARK  257  A    between atoms: _620  and  _623
REMARK  258  A    between atoms: _623  and  _624
REMARK  259  A    between atoms: _629  and  _630
REMARK                            x       y       z     vdW  Elec       q    Type
REMARK                         _______ _______ _______ _____ _____    ______ ____
ROOT
ATOM      1  C   ARG A   4      15.134  16.466  37.703  0.00  0.00    +0.241 C 
ATOM      2  O   ARG A   4      15.419  15.481  38.378  0.00  0.00    -0.273 OA
ATOM      3  N   LEU A   5      13.936  17.058  37.734  0.00  0.00    -0.297 N 
ATOM      4  H   LEU A   5      13.817  17.903  37.140  0.00  0.00    +0.150 HD
ENDROOT
BRANCH   3   5
ATOM      5  CA  LEU A   5      12.760  16.632  38.530  0.00  0.00    +0.149 C 
BRANCH   5   6
ATOM      6  C   LEU A   5      12.392  15.158  38.255  0.00  0.00    +0.241 C 
ATOM      7  O   LEU A   5      12.263  14.377  39.194  0.00  0.00    -0.273 OA
ATOM      8  N   LEU A   6      12.242  14.784  36.973  0.00  0.00    -0.297 N 
ATOM      9  H   LEU A   6      12.381  15.506  36.238  0.00  0.00    +0.150 HD
BRANCH   8  10
ATOM     10  CA  LEU A   6      11.891  13.410  36.536  0.00  0.00    +0.149 C 
BRANCH  10  11
ATOM     11  C   LEU A   6      12.953  12.370  36.937  0.00  0.00    +0.241 C 
ATOM     12  O   LEU A   6      12.600  11.238  37.307  0.00  0.00    -0.273 OA
ATOM     13  N   LYS A   7      14.254  12.749  36.836  0.00  0.00    -0.297 N 
ATOM     14  H   LYS A   7      14.464  13.706  36.487  0.00  0.00    +0.150 HD
BRANCH  13  15
ATOM     15  CA  LYS A   7      15.383  11.871  37.197  0.00  0.00    +0.149 C 
BRANCH  15  16
ATOM     16  C   LYS A   7      15.406  11.623  38.699  0.00  0.00    +0.241 C 
ATOM     17  N   HIS A   8      15.035  12.637  39.497  0.00  0.00    -0.297 N 
ATOM     18  H   HIS A   8      14.721  13.530  39.067  0.00  0.00    +0.150 HD
ATOM     19  O   LYS A   7      15.759  10.526  39.130  0.00  0.00    -0.273 OA
BRANCH  17  20
ATOM     20  CA  HIS A   8      15.060  12.520  40.951  0.00  0.00    +0.155 C 
BRANCH  20  21
ATOM     21  C   HIS A   8      14.000  11.591  41.527  0.00  0.00    +0.241 C 
ATOM     22  O   HIS A   8      14.272  10.892  42.510  0.00  0.00    -0.273 OA
ATOM     23  N   MET A   9      12.784  11.614  40.943  0.00  0.00    -0.298 N 
ATOM     24  H   MET A   9      12.669  12.194  40.087  0.00  0.00    +0.150 HD
BRANCH  23  25
ATOM     25  CA  MET A   9      11.612  10.877  41.432  0.00  0.00    +0.138 C 
BRANCH  25  26
ATOM     26  C   MET A   9      11.612   9.382  41.181  0.00  0.00    +0.227 C 
ATOM     27  O   MET A   9      11.545   8.926  40.038  0.00  0.00    -0.286 OA
ENDBRANCH  25  26
BRANCH  25  28
ATOM     28  CB  MET A   9      10.286  11.562  41.036  0.00  0.00    +0.039 C 
BRANCH  28  29
ATOM     29  CG  MET A   9      10.256  13.080  41.315  0.00  0.00    +0.060 C 
BRANCH  29  30
ATOM     30  SD  MET A   9      10.012  13.648  43.030  0.00  0.00    -0.139 S 
ATOM     31  CE  MET A   9      11.570  13.951  43.474  0.00  0.00    +0.069 C 
ENDBRANCH  29  30
ENDBRANCH  28  29
ENDBRANCH  25  28
ENDBRANCH  23  25
ENDBRANCH  20  21
BRANCH  20  32
ATOM     32  CB  HIS A   8      14.991  13.905  41.625  0.00  0.00    +0.076 C 
BRANCH  32  33
ATOM     33  CG  HIS A   8      15.393  13.849  43.064  0.00  0.00    +0.082 A 
ATOM     34  CD2 HIS A   8      14.625  13.747  44.175  0.00  0.00    +0.115 A 
ATOM     35  NE2 HIS A   8      15.473  13.631  45.235  0.00  0.00    -0.221 NA
ATOM     36  CE1 HIS A   8      16.711  13.657  44.747  0.00  0.00    +0.199 A 
ATOM     37  ND1 HIS A   8      16.719  13.786  43.434  0.00  0.00    -0.227 NA
ENDBRANCH  32  33
ENDBRANCH  20  32
ENDBRANCH  17  20
ENDBRANCH  15  16
BRANCH  15  38
ATOM     38  CB  LYS A   7      16.740  12.492  36.772  0.00  0.00    +0.029 C 
BRANCH  38  39
ATOM     39  CG  LYS A   7      17.064  12.395  35.293  0.00  0.00    +0.000 C 
BRANCH  39  40
ATOM     40  CD  LYS A   7      18.506  12.863  34.977  0.00  0.00    -0.024 C 
BRANCH  40  41
ATOM     41  CE  LYS A   7      19.599  11.899  35.427  0.00  0.00    -0.086 C 
BRANCH  41  42
ATOM     42  NZ  LYS A   7      20.931  12.252  34.859  0.00  0.00    +0.380 N 
ATOM     43  HZ1 LYS A   7      21.641  11.569  35.193  0.00  0.00    -0.089 HD
ATOM     44  HZ2 LYS A   7      21.196  13.209  35.169  0.00  0.00    -0.089 HD
ATOM     45  HZ3 LYS A   7      20.882  12.224  33.821  0.00  0.00    -0.089 HD
ENDBRANCH  41  42
ENDBRANCH  40  41
ENDBRANCH  39  40
ENDBRANCH  38  39
ENDBRANCH  15  38
ENDBRANCH  13  15
ENDBRANCH  10  11
BRANCH  10  46
ATOM     46  CB  LEU A   6      11.690  13.386  35.005  0.00  0.00    +0.029 C 
BRANCH  46  47
ATOM     47  CG  LEU A   6      10.267  13.349  34.395  0.00  0.00    +0.002 C 
ATOM     48  CD2 LEU A   6       9.135  13.439  35.410  0.00  0.00    +0.000 C 
ATOM     49  CD1 LEU A   6      10.149  14.269  33.186  0.00  0.00    +0.000 C 
ENDBRANCH  46  47
ENDBRANCH  10  46
ENDBRANCH   8  10
ENDBRANCH   5   6
BRANCH   5  50
ATOM     50  CB  LEU A   5      11.560  17.537  38.167  0.00  0.00    +0.029 C 
BRANCH  50  51
ATOM     51  CG  LEU A   5      10.945  18.578  39.140  0.00  0.00    +0.002 C 
ATOM     52  CD2 LEU A   5      11.673  18.735  40.426  0.00  0.00    +0.000 C 
ATOM     53  CD1 LEU A   5      10.724  19.903  38.464  0.00  0.00    +0.000 C 
ENDBRANCH  50  51
ENDBRANCH   5  50
ENDBRANCH   3   5
BRANCH   1  54
ATOM     54  CA  ARG A   4      16.175  17.065  36.767  0.00  0.00    +0.149 C 
BRANCH  54  56
ATOM     55  C   LEU A   3      15.208  16.133  34.689  0.00  0.00    +0.241 C 
ATOM     56  N   ARG A   4      15.689  17.172  35.385  0.00  0.00    -0.297 N 
ATOM     57  H   ARG A   4      15.720  18.103  34.922  0.00  0.00    +0.150 HD
ATOM     58  O   LEU A   3      15.084  15.002  35.166  0.00  0.00    -0.273 OA
BRANCH  55  59
ATOM     59  CA  LEU A   3      14.687  16.420  33.281  0.00  0.00    +0.149 C 
BRANCH  59  62
ATOM     60  C   GLU A   2      12.674  17.628  34.076  0.00  0.00    +0.241 C 
ATOM     61  O   GLU A   2      12.357  16.744  34.871  0.00  0.00    -0.273 OA
ATOM     62  N   LEU A   3      13.762  17.555  33.294  0.00  0.00    -0.297 N 
ATOM     63  H   LEU A   3      13.960  18.354  32.658  0.00  0.00    +0.150 HD
BRANCH  60  64
ATOM     64  CA  GLU A   2      11.835  18.912  33.986  0.00  0.00    +0.149 C 
BRANCH  64  67
ATOM     65  C   ARG A   1      13.310  20.321  35.301  0.00  0.00    +0.238 C 
ATOM     66  O   ARG A   1      13.319  19.504  36.214  0.00  0.00    -0.274 OA
ATOM     67  N   GLU A   2      12.625  20.120  34.158  0.00  0.00    -0.297 N 
ATOM     68  H   GLU A   2      12.662  20.830  33.399  0.00  0.00    +0.150 HD
BRANCH  65  69
ATOM     69  CA  ARG A   1      14.127  21.617  35.437  0.00  0.00    +0.145 C 
BRANCH  69  70
ATOM     70  N   ARG A   1      14.992  21.824  34.257  0.00  0.00    -0.238 NA
ATOM     71  H   ARG A   1      14.908  22.729  33.751  0.00  0.00    +0.142 HD
ENDBRANCH  69  70
BRANCH  69  72
ATOM     72  CB  ARG A   1      13.154  22.804  35.619  0.00  0.00    +0.030 C 
BRANCH  72  73
ATOM     73  CG  ARG A   1      12.358  22.764  36.916  0.00  0.00    +0.045 C 
BRANCH  73  74
ATOM     74  CD  ARG A   1      11.433  23.947  37.050  0.00  0.00    +0.174 C 
BRANCH  74  75
ATOM     75  NE  ARG A   1      12.163  25.177  37.392  0.00  0.00    -0.265 N 
ATOM     76  HE  ARG A   1      12.577  25.245  38.344  0.00  0.00    +0.259 HD
ATOM     77  CZ  ARG A   1      12.331  26.208  36.569  0.00  0.00    +0.342 C 
ATOM     78  NH2 ARG A   1      13.007  27.276  36.964  0.00  0.00    -0.292 N 
ATOM     79 HH21 ARG A   1      13.410  27.311  37.922  0.00  0.00    +0.255 HD
ATOM     80 HH22 ARG A   1      13.135  28.079  36.316  0.00  0.00    +0.255 HD
ATOM     81  NH1 ARG A   1      11.812  26.184  35.349  0.00  0.00    -0.292 N 
ATOM     82 HH11 ARG A   1      11.270  25.356  35.031  0.00  0.00    +0.255 HD
ATOM     83 HH12 ARG A   1      11.947  26.994  34.710  0.00  0.00    +0.255 HD
ENDBRANCH  74  75
ENDBRANCH  73  74
ENDBRANCH  72  73
ENDBRANCH  69  72
ENDBRANCH  65  69
ENDBRANCH  64  67
BRANCH  64  84
ATOM     84  CB  GLU A   2      10.983  18.975  32.729  0.00  0.00    +0.041 C 
BRANCH  84  85
ATOM     85  CG  GLU A   2       9.868  17.937  32.786  0.00  0.00    +0.116 C 
BRANCH  85  86
ATOM     86  CD  GLU A   2       8.794  18.019  31.724  0.00  0.00    +0.365 C 
ATOM     87  OE2 GLU A   2       7.882  17.161  31.735  0.00  0.00    -0.246 OA
ATOM     88  OE1 GLU A   2       8.890  18.909  30.851  0.00  0.00    -0.246 OA
ENDBRANCH  85  86
ENDBRANCH  84  85
ENDBRANCH  64  84
ENDBRANCH  60  64
ENDBRANCH  59  62
BRANCH  59  89
ATOM     89  CB  LEU A   3      15.827  16.691  32.284  0.00  0.00    +0.029 C 
BRANCH  89  90
ATOM     90  CG  LEU A   3      16.887  15.589  32.070  0.00  0.00    +0.002 C 
ATOM     91  CD2 LEU A   3      16.253  14.236  31.814  0.00  0.00    +0.000 C 
ATOM     92  CD1 LEU A   3      17.811  15.961  30.948  0.00  0.00    +0.000 C 
ENDBRANCH  89  90
ENDBRANCH  59  89
ENDBRANCH  55  59
ENDBRANCH  54  56
BRANCH  54  93
ATOM     93  CB  ARG A   4      16.653  18.440  37.288  0.00  0.00    +0.033 C 
BRANCH  93  94
ATOM     94  CG  ARG A   4      18.035  18.857  36.820  0.00  0.00    +0.045 C 
BRANCH  94  95
ATOM     95  CD  ARG A   4      19.183  17.958  37.289  0.00  0.00    +0.174 C 
BRANCH  95  96
ATOM     96  NE  ARG A   4      19.177  17.732  38.737  0.00  0.00    -0.265 N 
ATOM     97  CZ  ARG A   4      19.662  18.585  39.631  0.00  0.00    +0.342 C 
ATOM     98  NH2 ARG A   4      19.599  18.303  40.927  0.00  0.00    -0.292 N 
ATOM     99 HH21 ARG A   4      19.980  18.974  41.624  0.00  0.00    +0.255 HD
ATOM    100 HH22 ARG A   4      19.169  17.411  41.245  0.00  0.00    +0.255 HD
ATOM    101  NH1 ARG A   4      20.227  19.722  39.237  0.00  0.00    -0.292 N 
ATOM    102 HH11 ARG A   4      20.605  20.386  39.942  0.00  0.00    +0.255 HD
ATOM    103 HH12 ARG A   4      20.291  19.947  38.224  0.00  0.00    +0.255 HD
ATOM    104  HE  ARG A   4      18.765  16.844  39.088  0.00  0.00    +0.259 HD
ENDBRANCH  95  96
ENDBRANCH  94  95
ENDBRANCH  93  94
ENDBRANCH  54  93
ENDBRANCH   1  54
TORSDOF 45
REMARK  Name = ../refined-set-2016/2yix/2yix_pocket.pdb
REMARK  259 active torsions:
REMARK  status: ('A' for Active; 'I' for Inactive)
REMARK    1  A    between atoms: _1  and  _3
REMARK    2  A    between atoms: _3  and  _4
REMARK    3  A    between atoms: _3  and  _6
REMARK    4  A    between atoms: _9  and  _11
REMARK    5  A    between atoms: _11  and  _12
REMARK    6  A    between atoms: _14  and  _16
REMARK    7  A    between atoms: _16  and  _17
REMARK    8  A    between atoms: _16  and  _19
REMARK    9  A    between atoms: _19  and  _20
REMARK   10  A    between atoms: _22  and  _24
REMARK   11  A    between atoms: _24  and  _25
REMARK   12  A    between atoms: _28  and  _30
REMARK   13  A    between atoms: _30  and  _31
REMARK   14  A    between atoms: _30  and  _33
REMARK   15  A    between atoms: _33  and  _34
REMARK   16  A    between atoms: _39  and  _40
REMARK   17  A    between atoms: _42  and  _44
REMARK   18  A    between atoms: _44  and  _45
REMARK   19  A    between atoms: _47  and  _49
REMARK   20  A    between atoms: _49  and  _50
REMARK   21  A    between atoms: _49  and  _52
REMARK   22  A    between atoms: _52  and  _53
REMARK   23  A    between atoms: _55  and  _57
REMARK   24  A    between atoms: _57  and  _58
REMARK   25  A    between atoms: _57  and  _60
REMARK   26  A    between atoms: _63  and  _65
REMARK   27  A    between atoms: _65  and  _66
REMARK   28  A    between atoms: _65  and  _68
REMARK   29  A    between atoms: _70  and  _72
REMARK   30  A    between atoms: _72  and  _73
REMARK   31  A    between atoms: _76  and  _78
REMARK   32  A    between atoms: _78  and  _79
REMARK   33  A    between atoms: _78  and  _81
REMARK   34  A    between atoms: _81  and  _82
REMARK   35  A    between atoms: _82  and  _83
REMARK   36  A    between atoms: _83  and  _84
REMARK   37  A    between atoms: _93  and  _95
REMARK   38  A    between atoms: _95  and  _96
REMARK   39  A    between atoms: _95  and  _98
REMARK   40  A    between atoms: _101  and  _103
REMARK   41  A    between atoms: _103  and  _104
REMARK   42  A    between atoms: _107  and  _109
REMARK   43  A    between atoms: _109  and  _110
REMARK   44  A    between atoms: _109  and  _112
REMARK   45  A    between atoms: _115  and  _117
REMARK   46  A    between atoms: _117  and  _118
REMARK   47  A    between atoms: _117  and  _120
REMARK   48  A    between atoms: _120  and  _121
REMARK   49  A    between atoms: _121  and  _122
REMARK   50  A    between atoms: _122  and  _123
REMARK   51  A    between atoms: _123  and  _124
REMARK   52  A    between atoms: _128  and  _130
REMARK   53  A    between atoms: _130  and  _131
REMARK   54  A    between atoms: _130  and  _133
REMARK   55  A    between atoms: _133  and  _134
REMARK   56  A    between atoms: _134  and  _135
REMARK   57  A    between atoms: _135  and  _136
REMARK   58  A    between atoms: _136  and  _137
REMARK   59  A    between atoms: _141  and  _143
REMARK   60  A    between atoms: _143  and  _144
REMARK   61  A    between atoms: _143  and  _146
REMARK   62  A    between atoms: _146  and  _147
REMARK   63  A    between atoms: _150  and  _152
REMARK   64  A    between atoms: _152  and  _153
REMARK   65  A    between atoms: _152  and  _155
REMARK   66  A    between atoms: _155  and  _156
REMARK   67  A    between atoms: _156  and  _157
REMARK   68  A    between atoms: _157  and  _158
REMARK   69  A    between atoms: _167  and  _169
REMARK   70  A    between atoms: _169  and  _170
REMARK   71  A    between atoms: _169  and  _172
REMARK   72  A    between atoms: _172  and  _173
REMARK   73  A    between atoms: _173  and  _174
REMARK   74  A    between atoms: _174  and  _175
REMARK   75  A    between atoms: _184  and  _186
REMARK   76  A    between atoms: _186  and  _187
REMARK   77  A    between atoms: _186  and  _189
REMARK   78  A    between atoms: _189  and  _190
REMARK   79  A    between atoms: _190  and  _191
REMARK   80  A    between atoms: _194  and  _196
REMARK   81  A    between atoms: _196  and  _197
REMARK   82  A    between atoms: _196  and  _199
REMARK   83  A    between atoms: _199  and  _200
REMARK   84  A    between atoms: _203  and  _205
REMARK   85  A    between atoms: _205  and  _206
REMARK   86  A    between atoms: _205  and  _208
REMARK   87  A    between atoms: _208  and  _209
REMARK   88  A    between atoms: _209  and  _210
REMARK   89  A    between atoms: _210  and  _211
REMARK   90  A    between atoms: _220  and  _222
REMARK   91  A    between atoms: _222  and  _223
REMARK   92  A    between atoms: _222  and  _225
REMARK   93  A    between atoms: _225  and  _226
REMARK   94  A    between atoms: _229  and  _231
REMARK   95  A    between atoms: _231  and  _232
REMARK   96  A    between atoms: _231  and  _234
REMARK   97  A    between atoms: _234  and  _235
REMARK   98  A    between atoms: _238  and  _240
REMARK   99  A    between atoms: _240  and  _241
REMARK  100  A    between atoms: _240  and  _243
REMARK  101  A    between atoms: _243  and  _244
REMARK  102  A    between atoms: _244  and  _245
REMARK  103  A    between atoms: _245  and  _246
REMARK  104  A    between atoms: _246  and  _247
REMARK  105  A    between atoms: _251  and  _253
REMARK  106  A    between atoms: _253  and  _254
REMARK  107  A    between atoms: _253  and  _256
REMARK  108  A    between atoms: _256  and  _257
REMARK  109  A    between atoms: _262  and  _264
REMARK  110  A    between atoms: _264  and  _265
REMARK  111  A    between atoms: _264  and  _267
REMARK  112  A    between atoms: _267  and  _268
REMARK  113  A    between atoms: _268  and  _269
REMARK  114  A    between atoms: _271  and  _273
REMARK  115  A    between atoms: _273  and  _274
REMARK  116  A    between atoms: _273  and  _276
REMARK  117  A    between atoms: _279  and  _281
REMARK  118  A    between atoms: _281  and  _282
REMARK  119  A    between atoms: _281  and  _284
REMARK  120  A    between atoms: _284  and  _285
REMARK  121  A    between atoms: _288  and  _290
REMARK  122  A    between atoms: _290  and  _291
REMARK  123  A    between atoms: _293  and  _295
REMARK  124  A    between atoms: _295  and  _296
REMARK  125  A    between atoms: _295  and  _298
REMARK  126  A    between atoms: _298  and  _299
REMARK  127  A    between atoms: _302  and  _304
REMARK  128  A    between atoms: _304  and  _305
REMARK  129  A    between atoms: _304  and  _307
REMARK  130  A    between atoms: _307  and  _308
REMARK  131  A    between atoms: _311  and  _313
REMARK  132  A    between atoms: _313  and  _314
REMARK  133  A    between atoms: _313  and  _316
REMARK  134  A    between atoms: _316  and  _317
REMARK  135  A    between atoms: _320  and  _322
REMARK  136  A    between atoms: _322  and  _323
REMARK  137  A    between atoms: _322  and  _325
REMARK  138  A    between atoms: _325  and  _326
REMARK  139  A    between atoms: _331  and  _332
REMARK  140  A    between atoms: _334  and  _336
REMARK  141  A    between atoms: _336  and  _337
REMARK  142  A    between atoms: _336  and  _339
REMARK  143  A    between atoms: _339  and  _340
REMARK  144  A    between atoms: _343  and  _345
REMARK  145  A    between atoms: _345  and  _346
REMARK  146  A    between atoms: _345  and  _348
REMARK  147  A    between atoms: _351  and  _353
REMARK  148  A    between atoms: _353  and  _354
REMARK  149  A    between atoms: _353  and  _356
REMARK  150  A    between atoms: _356  and  _357
REMARK  151  A    between atoms: _360  and  _362
REMARK  152  A    between atoms: _362  and  _363
REMARK  153  A    between atoms: _362  and  _365
REMARK  154  A    between atoms: _365  and  _366
REMARK  155  A    between atoms: _371  and  _373
REMARK  156  A    between atoms: _373  and  _374
REMARK  157  A    between atoms: _373  and  _376
REMARK  158  A    between atoms: _376  and  _377
REMARK  159  A    between atoms: _380  and  _382
REMARK  160  A    between atoms: _382  and  _383
REMARK  161  A    between atoms: _382  and  _385
REMARK  162  A    between atoms: _385  and  _386
REMARK  163  A    between atoms: _386  and  _387
REMARK  164  A    between atoms: _389  and  _391
REMARK  165  A    between atoms: _391  and  _392
REMARK  166  A    between atoms: _394  and  _396
REMARK  167  A    between atoms: _396  and  _397
REMARK  168  A    between atoms: _400  and  _402
REMARK  169  A    between atoms: _402  and  _403
REMARK  170  A    between atoms: _402  and  _405
REMARK  171  A    between atoms: _405  and  _406
REMARK  172  A    between atoms: _409  and  _411
REMARK  173  A    between atoms: _411  and  _412
REMARK  174  A    between atoms: _411  and  _414
REMARK  175  A    between atoms: _414  and  _415
REMARK  176  A    between atoms: _418  and  _420
REMARK  177  A    between atoms: _420  and  _421
REMARK  178  A    between atoms: _420  and  _423
REMARK  179  A    between atoms: _423  and  _424
REMARK  180  A    between atoms: _429  and  _431
REMARK  181  A    between atoms: _431  and  _432
REMARK  182  A    between atoms: _431  and  _434
REMARK  183  A    between atoms: _434  and  _435
REMARK  184  A    between atoms: _440  and  _442
REMARK  185  A    between atoms: _442  and  _443
REMARK  186  A    between atoms: _442  and  _445
REMARK  187  A    between atoms: _445  and  _446
REMARK  188  A    between atoms: _449  and  _451
REMARK  189  A    between atoms: _451  and  _452
REMARK  190  A    between atoms: _451  and  _454
REMARK  191  A    between atoms: _454  and  _455
REMARK  192  A    between atoms: _458  and  _460
REMARK  193  A    between atoms: _460  and  _461
REMARK  194  A    between atoms: _460  and  _463
REMARK  195  A    between atoms: _463  and  _464
REMARK  196  A    between atoms: _470  and  _471
REMARK  197  A    between atoms: _476  and  _478
REMARK  198  A    between atoms: _478  and  _479
REMARK  199  A    between atoms: _478  and  _481
REMARK  200  A    between atoms: _481  and  _482
REMARK  201  A    between atoms: _484  and  _486
REMARK  202  A    between atoms: _486  and  _487
REMARK  203  A    between atoms: _486  and  _489
REMARK  204  A    between atoms: _489  and  _490
REMARK  205  A    between atoms: _495  and  _497
REMARK  206  A    between atoms: _497  and  _498
REMARK  207  A    between atoms: _497  and  _500
REMARK  208  A    between atoms: _500  and  _501
REMARK  209  A    between atoms: _504  and  _506
REMARK  210  A    between atoms: _506  and  _507
REMARK  211  A    between atoms: _510  and  _512
REMARK  212  A    between atoms: _512  and  _513
REMARK  213  A    between atoms: _512  and  _515
REMARK  214  A    between atoms: _518  and  _520
REMARK  215  A    between atoms: _520  and  _521
REMARK  216  A    between atoms: _520  and  _523
REMARK  217  A    between atoms: _523  and  _524
REMARK  218  A    between atoms: _529  and  _531
REMARK  219  A    between atoms: _531  and  _532
REMARK  220  A    between atoms: _531  and  _534
REMARK  221  A    between atoms: _534  and  _535
REMARK  222  A    between atoms: _535  and  _536
REMARK  223  A    between atoms: _536  and  _537
REMARK  224  A    between atoms: _537  and  _538
REMARK  225  A    between atoms: _542  and  _544
REMARK  226  A    between atoms: _544  and  _545
REMARK  227  A    between atoms: _544  and  _547
REMARK  228  A    between atoms: _547  and  _548
REMARK  229  A    between atoms: _551  and  _553
REMARK  230  A    between atoms: _553  and  _554
REMARK  231  A    between atoms: _553  and  _556
REMARK  232  A    between atoms: _556  and  _557
REMARK  233  A    between atoms: _560  and  _562
REMARK  234  A    between atoms: _562  and  _563
REMARK  235  A    between atoms: _562  and  _565
REMARK  236  A    between atoms: _565  and  _566
REMARK  237  A    between atoms: _569  and  _571
REMARK  238  A    between atoms: _571  and  _572
REMARK  239  A    between atoms: _571  and  _574
REMARK  240  A    between atoms: _574  and  _575
REMARK  241  A    between atoms: _581  and  _583
REMARK  242  A    between atoms: _583  and  _584
REMARK  243  A    between atoms: _586  and  _588
REMARK  244  A    between atoms: _588  and  _589
REMARK  245  A    between atoms: _588  and  _591
REMARK  246  A    between atoms: _591  and  _592
REMARK  247  A    between atoms: _595  and  _597
REMARK  248  A    between atoms: _597  and  _598
REMARK  249  A    between atoms: _601  and  _603
REMARK  250  A    between atoms: _603  and  _604
REMARK  251  A    between atoms: _603  and  _606
REMARK  252  A    between atoms: _606  and  _607
REMARK  253  A    between atoms: _607  and  _608
REMARK  254  A    between atoms: _608  and  _609
REMARK  255  A    between atoms: _618  and  _620
REMARK  256  A    between atoms: _620  and  _621
REMARK  257  A    between atoms: _620  and  _623
REMARK  258  A    between atoms: _623  and  _624
REMARK  259  A    between atoms: _629  and  _630
REMARK                            x       y       z     vdW  Elec       q    Type
REMARK                         _______ _______ _______ _____ _____    ______ ____
ROOT
ATOM      1  CA  LEU A   4      12.029   8.659  34.240  0.00  0.00    +0.149 C 
ENDROOT
BRANCH   1   3
ATOM      2  C   GLY A   3      10.063   8.915  35.663  0.00  0.00    +0.243 C 
ATOM      3  N   LEU A   4      11.379   8.797  35.530  0.00  0.00    -0.297 N 
ATOM      4  H   LEU A   4      11.969   8.804  36.387  0.00  0.00    +0.150 HD
ATOM      5  O   GLY A   3       9.290   8.926  34.706  0.00  0.00    -0.273 OA
BRANCH   2   6
ATOM      6  CA  GLY A   3       9.540   9.070  37.065  0.00  0.00    +0.176 C 
BRANCH   6   9
ATOM      7  C   ILE A   2       7.383  10.030  37.676  0.00  0.00    +0.241 C 
ATOM      8  O   ILE A   2       7.897  11.017  38.227  0.00  0.00    -0.273 OA
ATOM      9  N   GLY A   3       8.088   9.058  37.120  0.00  0.00    -0.295 N 
ATOM     10  H   GLY A   3       7.581   8.251  36.704  0.00  0.00    +0.150 HD
BRANCH   7  11
ATOM     11  CA  ILE A   2       5.848   9.828  37.669  0.00  0.00    +0.148 C 
BRANCH  11  14
ATOM     12  C   VAL A   1       5.592   9.384  40.067  0.00  0.00    +0.238 C 
ATOM     13  O   VAL A   1       6.239   8.337  40.006  0.00  0.00    -0.274 OA
ATOM     14  N   ILE A   2       5.317  10.150  38.992  0.00  0.00    -0.297 N 
ATOM     15  H   ILE A   2       4.713  10.989  39.107  0.00  0.00    +0.150 HD
BRANCH  12  16
ATOM     16  CA  VAL A   1       5.053   9.829  41.403  0.00  0.00    +0.145 C 
BRANCH  16  17
ATOM     17  CB  VAL A   1       6.146  10.502  42.287  0.00  0.00    +0.025 C 
ATOM     18  CG2 VAL A   1       5.653  10.735  43.716  0.00  0.00    +0.002 C 
ATOM     19  CG1 VAL A   1       6.623  11.813  41.676  0.00  0.00    +0.002 C 
ENDBRANCH  16  17
BRANCH  16  20
ATOM     20  N   VAL A   1       4.503   8.634  42.030  0.00  0.00    -0.238 NA
ATOM     21  H   VAL A   1       5.098   7.784  42.098  0.00  0.00    +0.142 HD
ENDBRANCH  16  20
ENDBRANCH  12  16
ENDBRANCH  11  14
BRANCH  11  22
ATOM     22  CB  ILE A   2       5.102  10.581  36.526  0.00  0.00    +0.027 C 
ATOM     23  CG2 ILE A   2       5.683  11.954  36.265  0.00  0.00    +0.002 C 
BRANCH  22  24
ATOM     24  CG1 ILE A   2       5.037   9.769  35.217  0.00  0.00    +0.002 C 
ATOM     25  CD1 ILE A   2       4.109   8.589  35.157  0.00  0.00    +0.000 C 
ENDBRANCH  22  24
ENDBRANCH  11  22
ENDBRANCH   7  11
ENDBRANCH   6   9
ENDBRANCH   2   6
ENDBRANCH   1   3
BRANCH   1  26
ATOM     26  C   LEU A   4      12.429   7.201  34.021  0.00  0.00    +0.241 C 
ATOM     27  O   LEU A   4      13.189   6.638  34.809  0.00  0.00    -0.273 OA
ATOM     28  N   LEU A   5      11.864   6.570  32.994  0.00  0.00    -0.297 N 
ATOM     29  H   LEU A   5      11.143   7.065  32.432  0.00  0.00    +0.150 HD
BRANCH  28  30
ATOM     30  CA  LEU A   5      12.227   5.210  32.637  0.00  0.00    +0.149 C 
BRANCH  30  31
ATOM     31  C   LEU A   5      13.405   5.291  31.684  0.00  0.00    +0.241 C 
ATOM     32  O   LEU A   5      14.294   4.439  31.723  0.00  0.00    -0.273 OA
ATOM     33  N   ASP A   6      13.430   6.361  30.872  0.00  0.00    -0.298 N 
ATOM     34  H   ASP A   6      12.657   7.052  30.956  0.00  0.00    +0.150 HD
BRANCH  33  35
ATOM     35  CA  ASP A   6      14.467   6.617  29.883  0.00  0.00    +0.148 C 
BRANCH  35  36
ATOM     36  C   ASP A   6      14.462   8.046  29.380  0.00  0.00    +0.227 C 
ATOM     37  O   ASP A   6      13.432   8.709  29.390  0.00  0.00    -0.286 OA
ENDBRANCH  35  36
BRANCH  35  38
ATOM     38  CB  ASP A   6      14.329   5.628  28.705  0.00  0.00    +0.142 C 
BRANCH  38  39
ATOM     39  CG  ASP A   6      15.526   5.535  27.770  0.00  0.00    +0.367 C 
ATOM     40  OD2 ASP A   6      16.661   5.784  28.228  0.00  0.00    -0.246 OA
ATOM     41  OD1 ASP A   6      15.329   5.184  26.587  0.00  0.00    -0.246 OA
ENDBRANCH  38  39
ENDBRANCH  35  38
ENDBRANCH  33  35
ENDBRANCH  30  31
BRANCH  30  42
ATOM     42  CB  LEU A   5      11.056   4.456  31.999  0.00  0.00    +0.029 C 
BRANCH  42  43
ATOM     43  CG  LEU A   5      10.029   3.884  32.979  0.00  0.00    +0.002 C 
ATOM     44  CD2 LEU A   5      10.603   2.703  33.750  0.00  0.00    +0.000 C 
ATOM     45  CD1 LEU A   5       8.786   3.469  32.249  0.00  0.00    +0.000 C 
ENDBRANCH  42  43
ENDBRANCH  30  42
ENDBRANCH  28  30
ENDBRANCH   1  26
BRANCH   1  46
ATOM     46  CB  LEU A   4      13.261   9.554  34.189  0.00  0.00    +0.029 C 
BRANCH  46  47
ATOM     47  CG  LEU A   4      13.403  10.610  33.095  0.00  0.00    +0.002 C 
ATOM     48  CD2 LEU A   4      14.836  10.744  32.693  0.00  0.00    +0.000 C 
ATOM     49  CD1 LEU A   4      12.540  10.351  31.893  0.00  0.00    +0.000 C 
ENDBRANCH  46  47
ENDBRANCH   1  46
TORSDOF 21
REMARK  Name = ../refined-set-2016/2yix/2yix_pocket.pdb
REMARK  259 active torsions:
REMARK  status: ('A' for Active; 'I' for Inactive)
REMARK    1  A    between atoms: _1  and  _3
REMARK    2  A    between atoms: _3  and  _4
REMARK    3  A    between atoms: _3  and  _6
REMARK    4  A    between atoms: _9  and  _11
REMARK    5  A    between atoms: _11  and  _12
REMARK    6  A    between atoms: _14  and  _16
REMARK    7  A    between atoms: _16  and  _17
REMARK    8  A    between atoms: _16  and  _19
REMARK    9  A    between atoms: _19  and  _20
REMARK   10  A    between atoms: _22  and  _24
REMARK   11  A    between atoms: _24  and  _25
REMARK   12  A    between atoms: _28  and  _30
REMARK   13  A    between atoms: _30  and  _31
REMARK   14  A    between atoms: _30  and  _33
REMARK   15  A    between atoms: _33  and  _34
REMARK   16  A    between atoms: _39  and  _40
REMARK   17  A    between atoms: _42  and  _44
REMARK   18  A    between atoms: _44  and  _45
REMARK   19  A    between atoms: _47  and  _49
REMARK   20  A    between atoms: _49  and  _50
REMARK   21  A    between atoms: _49  and  _52
REMARK   22  A    between atoms: _52  and  _53
REMARK   23  A    between atoms: _55  and  _57
REMARK   24  A    between atoms: _57  and  _58
REMARK   25  A    between atoms: _57  and  _60
REMARK   26  A    between atoms: _63  and  _65
REMARK   27  A    between atoms: _65  and  _66
REMARK   28  A    between atoms: _65  and  _68
REMARK   29  A    between atoms: _70  and  _72
REMARK   30  A    between atoms: _72  and  _73
REMARK   31  A    between atoms: _76  and  _78
REMARK   32  A    between atoms: _78  and  _79
REMARK   33  A    between atoms: _78  and  _81
REMARK   34  A    between atoms: _81  and  _82
REMARK   35  A    between atoms: _82  and  _83
REMARK   36  A    between atoms: _83  and  _84
REMARK   37  A    between atoms: _93  and  _95
REMARK   38  A    between atoms: _95  and  _96
REMARK   39  A    between atoms: _95  and  _98
REMARK   40  A    between atoms: _101  and  _103
REMARK   41  A    between atoms: _103  and  _104
REMARK   42  A    between atoms: _107  and  _109
REMARK   43  A    between atoms: _109  and  _110
REMARK   44  A    between atoms: _109  and  _112
REMARK   45  A    between atoms: _115  and  _117
REMARK   46  A    between atoms: _117  and  _118
REMARK   47  A    between atoms: _117  and  _120
REMARK   48  A    between atoms: _120  and  _121
REMARK   49  A    between atoms: _121  and  _122
REMARK   50  A    between atoms: _122  and  _123
REMARK   51  A    between atoms: _123  and  _124
REMARK   52  A    between atoms: _128  and  _130
REMARK   53  A    between atoms: _130  and  _131
REMARK   54  A    between atoms: _130  and  _133
REMARK   55  A    between atoms: _133  and  _134
REMARK   56  A    between atoms: _134  and  _135
REMARK   57  A    between atoms: _135  and  _136
REMARK   58  A    between atoms: _136  and  _137
REMARK   59  A    between atoms: _141  and  _143
REMARK   60  A    between atoms: _143  and  _144
REMARK   61  A    between atoms: _143  and  _146
REMARK   62  A    between atoms: _146  and  _147
REMARK   63  A    between atoms: _150  and  _152
REMARK   64  A    between atoms: _152  and  _153
REMARK   65  A    between atoms: _152  and  _155
REMARK   66  A    between atoms: _155  and  _156
REMARK   67  A    between atoms: _156  and  _157
REMARK   68  A    between atoms: _157  and  _158
REMARK   69  A    between atoms: _167  and  _169
REMARK   70  A    between atoms: _169  and  _170
REMARK   71  A    between atoms: _169  and  _172
REMARK   72  A    between atoms: _172  and  _173
REMARK   73  A    between atoms: _173  and  _174
REMARK   74  A    between atoms: _174  and  _175
REMARK   75  A    between atoms: _184  and  _186
REMARK   76  A    between atoms: _186  and  _187
REMARK   77  A    between atoms: _186  and  _189
REMARK   78  A    between atoms: _189  and  _190
REMARK   79  A    between atoms: _190  and  _191
REMARK   80  A    between atoms: _194  and  _196
REMARK   81  A    between atoms: _196  and  _197
REMARK   82  A    between atoms: _196  and  _199
REMARK   83  A    between atoms: _199  and  _200
REMARK   84  A    between atoms: _203  and  _205
REMARK   85  A    between atoms: _205  and  _206
REMARK   86  A    between atoms: _205  and  _208
REMARK   87  A    between atoms: _208  and  _209
REMARK   88  A    between atoms: _209  and  _210
REMARK   89  A    between atoms: _210  and  _211
REMARK   90  A    between atoms: _220  and  _222
REMARK   91  A    between atoms: _222  and  _223
REMARK   92  A    between atoms: _222  and  _225
REMARK   93  A    between atoms: _225  and  _226
REMARK   94  A    between atoms: _229  and  _231
REMARK   95  A    between atoms: _231  and  _232
REMARK   96  A    between atoms: _231  and  _234
REMARK   97  A    between atoms: _234  and  _235
REMARK   98  A    between atoms: _238  and  _240
REMARK   99  A    between atoms: _240  and  _241
REMARK  100  A    between atoms: _240  and  _243
REMARK  101  A    between atoms: _243  and  _244
REMARK  102  A    between atoms: _244  and  _245
REMARK  103  A    between atoms: _245  and  _246
REMARK  104  A    between atoms: _246  and  _247
REMARK  105  A    between atoms: _251  and  _253
REMARK  106  A    between atoms: _253  and  _254
REMARK  107  A    between atoms: _253  and  _256
REMARK  108  A    between atoms: _256  and  _257
REMARK  109  A    between atoms: _262  and  _264
REMARK  110  A    between atoms: _264  and  _265
REMARK  111  A    between atoms: _264  and  _267
REMARK  112  A    between atoms: _267  and  _268
REMARK  113  A    between atoms: _268  and  _269
REMARK  114  A    between atoms: _271  and  _273
REMARK  115  A    between atoms: _273  and  _274
REMARK  116  A    between atoms: _273  and  _276
REMARK  117  A    between atoms: _279  and  _281
REMARK  118  A    between atoms: _281  and  _282
REMARK  119  A    between atoms: _281  and  _284
REMARK  120  A    between atoms: _284  and  _285
REMARK  121  A    between atoms: _288  and  _290
REMARK  122  A    between atoms: _290  and  _291
REMARK  123  A    between atoms: _293  and  _295
REMARK  124  A    between atoms: _295  and  _296
REMARK  125  A    between atoms: _295  and  _298
REMARK  126  A    between atoms: _298  and  _299
REMARK  127  A    between atoms: _302  and  _304
REMARK  128  A    between atoms: _304  and  _305
REMARK  129  A    between atoms: _304  and  _307
REMARK  130  A    between atoms: _307  and  _308
REMARK  131  A    between atoms: _311  and  _313
REMARK  132  A    between atoms: _313  and  _314
REMARK  133  A    between atoms: _313  and  _316
REMARK  134  A    between atoms: _316  and  _317
REMARK  135  A    between atoms: _320  and  _322
REMARK  136  A    between atoms: _322  and  _323
REMARK  137  A    between atoms: _322  and  _325
REMARK  138  A    between atoms: _325  and  _326
REMARK  139  A    between atoms: _331  and  _332
REMARK  140  A    between atoms: _334  and  _336
REMARK  141  A    between atoms: _336  and  _337
REMARK  142  A    between atoms: _336  and  _339
REMARK  143  A    between atoms: _339  and  _340
REMARK  144  A    between atoms: _343  and  _345
REMARK  145  A    between atoms: _345  and  _346
REMARK  146  A    between atoms: _345  and  _348
REMARK  147  A    between atoms: _351  and  _353
REMARK  148  A    between atoms: _353  and  _354
REMARK  149  A    between atoms: _353  and  _356
REMARK  150  A    between atoms: _356  and  _357
REMARK  151  A    between atoms: _360  and  _362
REMARK  152  A    between atoms: _362  and  _363
REMARK  153  A    between atoms: _362  and  _365
REMARK  154  A    between atoms: _365  and  _366
REMARK  155  A    between atoms: _371  and  _373
REMARK  156  A    between atoms: _373  and  _374
REMARK  157  A    between atoms: _373  and  _376
REMARK  158  A    between atoms: _376  and  _377
REMARK  159  A    between atoms: _380  and  _382
REMARK  160  A    between atoms: _382  and  _383
REMARK  161  A    between atoms: _382  and  _385
REMARK  162  A    between atoms: _385  and  _386
REMARK  163  A    between atoms: _386  and  _387
REMARK  164  A    between atoms: _389  and  _391
REMARK  165  A    between atoms: _391  and  _392
REMARK  166  A    between atoms: _394  and  _396
REMARK  167  A    between atoms: _396  and  _397
REMARK  168  A    between atoms: _400  and  _402
REMARK  169  A    between atoms: _402  and  _403
REMARK  170  A    between atoms: _402  and  _405
REMARK  171  A    between atoms: _405  and  _406
REMARK  172  A    between atoms: _409  and  _411
REMARK  173  A    between atoms: _411  and  _412
REMARK  174  A    between atoms: _411  and  _414
REMARK  175  A    between atoms: _414  and  _415
REMARK  176  A    between atoms: _418  and  _420
REMARK  177  A    between atoms: _420  and  _421
REMARK  178  A    between atoms: _420  and  _423
REMARK  179  A    between atoms: _423  and  _424
REMARK  180  A    between atoms: _429  and  _431
REMARK  181  A    between atoms: _431  and  _432
REMARK  182  A    between atoms: _431  and  _434
REMARK  183  A    between atoms: _434  and  _435
REMARK  184  A    between atoms: _440  and  _442
REMARK  185  A    between atoms: _442  and  _443
REMARK  186  A    between atoms: _442  and  _445
REMARK  187  A    between atoms: _445  and  _446
REMARK  188  A    between atoms: _449  and  _451
REMARK  189  A    between atoms: _451  and  _452
REMARK  190  A    between atoms: _451  and  _454
REMARK  191  A    between atoms: _454  and  _455
REMARK  192  A    between atoms: _458  and  _460
REMARK  193  A    between atoms: _460  and  _461
REMARK  194  A    between atoms: _460  and  _463
REMARK  195  A    between atoms: _463  and  _464
REMARK  196  A    between atoms: _470  and  _471
REMARK  197  A    between atoms: _476  and  _478
REMARK  198  A    between atoms: _478  and  _479
REMARK  199  A    between atoms: _478  and  _481
REMARK  200  A    between atoms: _481  and  _482
REMARK  201  A    between atoms: _484  and  _486
REMARK  202  A    between atoms: _486  and  _487
REMARK  203  A    between atoms: _486  and  _489
REMARK  204  A    between atoms: _489  and  _490
REMARK  205  A    between atoms: _495  and  _497
REMARK  206  A    between atoms: _497  and  _498
REMARK  207  A    between atoms: _497  and  _500
REMARK  208  A    between atoms: _500  and  _501
REMARK  209  A    between atoms: _504  and  _506
REMARK  210  A    between atoms: _506  and  _507
REMARK  211  A    between atoms: _510  and  _512
REMARK  212  A    between atoms: _512  and  _513
REMARK  213  A    between atoms: _512  and  _515
REMARK  214  A    between atoms: _518  and  _520
REMARK  215  A    between atoms: _520  and  _521
REMARK  216  A    between atoms: _520  and  _523
REMARK  217  A    between atoms: _523  and  _524
REMARK  218  A    between atoms: _529  and  _531
REMARK  219  A    between atoms: _531  and  _532
REMARK  220  A    between atoms: _531  and  _534
REMARK  221  A    between atoms: _534  and  _535
REMARK  222  A    between atoms: _535  and  _536
REMARK  223  A    between atoms: _536  and  _537
REMARK  224  A    between atoms: _537  and  _538
REMARK  225  A    between atoms: _542  and  _544
REMARK  226  A    between atoms: _544  and  _545
REMARK  227  A    between atoms: _544  and  _547
REMARK  228  A    between atoms: _547  and  _548
REMARK  229  A    between atoms: _551  and  _553
REMARK  230  A    between atoms: _553  and  _554
REMARK  231  A    between atoms: _553  and  _556
REMARK  232  A    between atoms: _556  and  _557
REMARK  233  A    between atoms: _560  and  _562
REMARK  234  A    between atoms: _562  and  _563
REMARK  235  A    between atoms: _562  and  _565
REMARK  236  A    between atoms: _565  and  _566
REMARK  237  A    between atoms: _569  and  _571
REMARK  238  A    between atoms: _571  and  _572
REMARK  239  A    between atoms: _571  and  _574
REMARK  240  A    between atoms: _574  and  _575
REMARK  241  A    between atoms: _581  and  _583
REMARK  242  A    between atoms: _583  and  _584
REMARK  243  A    between atoms: _586  and  _588
REMARK  244  A    between atoms: _588  and  _589
REMARK  245  A    between atoms: _588  and  _591
REMARK  246  A    between atoms: _591  and  _592
REMARK  247  A    between atoms: _595  and  _597
REMARK  248  A    between atoms: _597  and  _598
REMARK  249  A    between atoms: _601  and  _603
REMARK  250  A    between atoms: _603  and  _604
REMARK  251  A    between atoms: _603  and  _606
REMARK  252  A    between atoms: _606  and  _607
REMARK  253  A    between atoms: _607  and  _608
REMARK  254  A    between atoms: _608  and  _609
REMARK  255  A    between atoms: _618  and  _620
REMARK  256  A    between atoms: _620  and  _621
REMARK  257  A    between atoms: _620  and  _623
REMARK  258  A    between atoms: _623  and  _624
REMARK  259  A    between atoms: _629  and  _630
REMARK                            x       y       z     vdW  Elec       q    Type
REMARK                         _______ _______ _______ _____ _____    ______ ____
ROOT
ATOM      1  CA  MET A   7      -1.174   4.887  32.964  0.00  0.00    +0.149 C 
ENDROOT
BRANCH   1   3
ATOM      2  C   LEU A   6       0.677   4.498  31.474  0.00  0.00    +0.241 C 
ATOM      3  N   MET A   7      -0.084   5.378  32.111  0.00  0.00    -0.297 N 
ATOM      4  H   MET A   7       0.088   6.398  32.008  0.00  0.00    +0.150 HD
ATOM      5  O   LEU A   6       0.558   3.279  31.639  0.00  0.00    -0.273 OA
BRANCH   2   6
ATOM      6  CA  LEU A   6       1.768   5.062  30.555  0.00  0.00    +0.149 C 
BRANCH   6   9
ATOM      7  C   HIS A   5       3.831   5.374  31.797  0.00  0.00    +0.241 C 
ATOM      8  O   HIS A   5       3.614   6.583  31.945  0.00  0.00    -0.273 OA
ATOM      9  N   LEU A   6       3.037   4.583  31.089  0.00  0.00    -0.297 N 
ATOM     10  H   LEU A   6       3.326   3.600  30.911  0.00  0.00    +0.150 HD
BRANCH   7  11
ATOM     11  CA  HIS A   5       5.061   4.715  32.422  0.00  0.00    +0.155 C 
BRANCH  11  13
ATOM     12  C   THR A   4       6.696   6.207  31.346  0.00  0.00    +0.243 C 
ATOM     13  N   HIS A   5       6.171   5.670  32.450  0.00  0.00    -0.297 N 
ATOM     14  H   HIS A   5       6.568   5.942  33.372  0.00  0.00    +0.150 HD
ATOM     15  O   THR A   4       6.305   5.935  30.215  0.00  0.00    -0.273 OA
BRANCH  12  16
ATOM     16  CA  THR A   4       7.787   7.245  31.544  0.00  0.00    +0.176 C 
BRANCH  16  19
ATOM     17  C   VAL A   3       9.660   7.926  30.105  0.00  0.00    +0.241 C 
ATOM     18  O   VAL A   3      10.470   7.909  31.026  0.00  0.00    -0.273 OA
ATOM     19  N   THR A   4       8.366   7.658  30.275  0.00  0.00    -0.295 N 
ATOM     20  H   THR A   4       7.734   7.749  29.454  0.00  0.00    +0.150 HD
BRANCH  17  21
ATOM     21  CA  VAL A   3      10.090   8.269  28.675  0.00  0.00    +0.149 C 
BRANCH  21  23
ATOM     22  C   LEU A   2      10.492  10.586  27.924  0.00  0.00    +0.241 C 
ATOM     23  N   VAL A   3      10.865   9.508  28.635  0.00  0.00    -0.297 N 
ATOM     24  H   VAL A   3      11.747   9.558  29.183  0.00  0.00    +0.150 HD
ATOM     25  O   LEU A   2       9.472  10.619  27.231  0.00  0.00    -0.273 OA
BRANCH  22  26
ATOM     26  CA  LEU A   2      11.438  11.781  27.937  0.00  0.00    +0.149 C 
BRANCH  26  28
ATOM     27  C   TYR A   1      12.751  12.083  25.884  0.00  0.00    +0.239 C 
ATOM     28  N   LEU A   2      11.624  12.269  26.566  0.00  0.00    -0.297 N 
ATOM     29  H   LEU A   2      10.843  12.781  26.109  0.00  0.00    +0.150 HD
ATOM     30  O   TYR A   1      13.733  11.525  26.358  0.00  0.00    -0.274 OA
BRANCH  27  31
ATOM     31  CA  TYR A   1      12.825  12.659  24.494  0.00  0.00    +0.149 C 
BRANCH  31  32
ATOM     32  N   TYR A   1      13.979  13.531  24.449  0.00  0.00    -0.238 NA
ATOM     33  H   TYR A   1      14.918  13.136  24.656  0.00  0.00    +0.142 HD
ENDBRANCH  31  32
BRANCH  31  34
ATOM     34  CB  TYR A   1      12.947  11.552  23.455  0.00  0.00    +0.053 C 
BRANCH  34  35
ATOM     35  CG  TYR A   1      12.844  11.987  22.003  0.00  0.00    -0.020 A 
ATOM     36  CD2 TYR A   1      13.943  12.527  21.335  0.00  0.00    -0.001 A 
ATOM     37  CE2 TYR A   1      13.873  12.870  19.980  0.00  0.00    +0.036 A 
ATOM     38  CZ  TYR A   1      12.715  12.607  19.261  0.00  0.00    +0.134 A 
ATOM     39  CE1 TYR A   1      11.624  12.037  19.898  0.00  0.00    +0.036 A 
ATOM     40  CD1 TYR A   1      11.695  11.728  21.260  0.00  0.00    -0.001 A 
BRANCH  38  41
ATOM     41  OH  TYR A   1      12.623  12.928  17.922  0.00  0.00    -0.506 OA
ATOM     42  HH  TYR A   1      13.479  13.323  17.619  0.00  0.00    +0.292 HD
ENDBRANCH  38  41
ENDBRANCH  34  35
ENDBRANCH  31  34
ENDBRANCH  27  31
ENDBRANCH  26  28
BRANCH  26  43
ATOM     43  CB  LEU A   2      10.921  12.908  28.864  0.00  0.00    +0.029 C 
BRANCH  43  44
ATOM     44  CG  LEU A   2      11.760  14.191  28.906  0.00  0.00    +0.002 C 
ATOM     45  CD2 LEU A   2      13.023  14.019  29.783  0.00  0.00    +0.000 C 
ATOM     46  CD1 LEU A   2      10.938  15.365  29.410  0.00  0.00    +0.000 C 
ENDBRANCH  43  44
ENDBRANCH  26  43
ENDBRANCH  22  26
ENDBRANCH  21  23
BRANCH  21  47
ATOM     47  CB  VAL A   3      10.832   7.077  27.982  0.00  0.00    +0.027 C 
ATOM     48  CG2 VAL A   3       9.998   5.802  27.995  0.00  0.00    +0.002 C 
ATOM     49  CG1 VAL A   3      11.241   7.424  26.553  0.00  0.00    +0.002 C 
ENDBRANCH  21  47
ENDBRANCH  17  21
ENDBRANCH  16  19
BRANCH  16  50
ATOM     50  CB  THR A   4       7.275   8.449  32.334  0.00  0.00    +0.137 C 
ATOM     51  CG2 THR A   4       6.034   9.089  31.717  0.00  0.00    +0.034 C 
BRANCH  50  52
ATOM     52  OG1 THR A   4       7.007   7.964  33.654  0.00  0.00    -0.382 OA
ATOM     53  HG1 THR A   4       7.841   7.604  34.048  0.00  0.00    +0.210 HD
ENDBRANCH  50  52
ENDBRANCH  16  50
ENDBRANCH  12  16
ENDBRANCH  11  13
BRANCH  11  54
ATOM     54  CB  HIS A   5       4.686   4.291  33.856  0.00  0.00    +0.076 C 
BRANCH  54  55
ATOM     55  CG  HIS A   5       5.680   3.395  34.521  0.00  0.00    +0.082 A 
ATOM     56  ND1 HIS A   5       6.714   3.909  35.294  0.00  0.00    -0.227 NA
ATOM     57  CE1 HIS A   5       7.391   2.854  35.729  0.00  0.00    +0.199 A 
ATOM     58  NE2 HIS A   5       6.855   1.710  35.287  0.00  0.00    -0.221 NA
ATOM     59  CD2 HIS A   5       5.757   2.042  34.525  0.00  0.00    +0.115 A 
ENDBRANCH  54  55
ENDBRANCH  11  54
ENDBRANCH   7  11
ENDBRANCH   6   9
BRANCH   6  60
ATOM     60  CB  LEU A   6       1.545   4.585  29.115  0.00  0.00    +0.029 C 
BRANCH  60  61
ATOM     61  CG  LEU A   6       0.280   5.081  28.441  0.00  0.00    +0.002 C 
ATOM     62  CD2 LEU A   6       0.373   6.564  28.114  0.00  0.00    +0.000 C 
ATOM     63  CD1 LEU A   6      -0.030   4.256  27.199  0.00  0.00    +0.000 C 
ENDBRANCH  60  61
ENDBRANCH   6  60
ENDBRANCH   2   6
ENDBRANCH   1   3
BRANCH   1  64
ATOM     64  C   MET A   7      -2.401   4.670  32.123  0.00  0.00    +0.241 C 
ATOM     65  O   MET A   7      -3.103   3.691  32.327  0.00  0.00    -0.273 OA
ATOM     66  N   GLY A   8      -2.595   5.530  31.132  0.00  0.00    -0.295 N 
ATOM     67  H   GLY A   8      -1.950   6.342  31.056  0.00  0.00    +0.150 HD
BRANCH  66  68
ATOM     68  CA  GLY A   8      -3.660   5.404  30.143  0.00  0.00    +0.176 C 
BRANCH  68  69
ATOM     69  C   GLY A   8      -4.825   6.348  30.300  0.00  0.00    +0.243 C 
ATOM     70  N   ALA A   9      -5.072   6.790  31.536  0.00  0.00    -0.297 N 
ATOM     71  H   ALA A   9      -4.468   6.457  32.314  0.00  0.00    +0.150 HD
ATOM     72  O   GLY A   8      -5.509   6.653  29.321  0.00  0.00    -0.273 OA
BRANCH  70  73
ATOM     73  CA  ALA A   9      -6.145   7.713  31.839  0.00  0.00    +0.149 C 
ATOM     74  CB  ALA A   9      -7.388   6.931  32.220  0.00  0.00    +0.031 C 
BRANCH  73  75
ATOM     75  C   ALA A   9      -5.741   8.673  32.965  0.00  0.00    +0.241 C 
ATOM     76  O   ALA A   9      -4.746   8.421  33.645  0.00  0.00    -0.273 OA
ATOM     77  N   ASP A  10      -6.495   9.785  33.131  0.00  0.00    -0.297 N 
ATOM     78  H   ASP A  10      -7.254   9.961  32.442  0.00  0.00    +0.150 HD
BRANCH  77  79
ATOM     79  CA  ASP A  10      -6.316  10.763  34.218  0.00  0.00    +0.160 C 
BRANCH  79  80
ATOM     80  C   ASP A  10      -7.479  10.602  35.199  0.00  0.00    +0.241 C 
ATOM     81  N   LEU A  11      -7.440  11.238  36.386  0.00  0.00    -0.297 N 
ATOM     82  H   LEU A  11      -6.624  11.840  36.615  0.00  0.00    +0.150 HD
ATOM     83  O   ASP A  10      -8.430   9.905  34.858  0.00  0.00    -0.273 OA
BRANCH  81  84
ATOM     84  CA  LEU A  11      -8.536  11.096  37.369  0.00  0.00    +0.149 C 
BRANCH  84  85
ATOM     85  C   LEU A  11      -9.956  11.470  36.859  0.00  0.00    +0.241 C 
ATOM     86  O   LEU A  11     -10.913  10.840  37.281  0.00  0.00    -0.273 OA
ATOM     87  N   ASN A  12     -10.086  12.400  35.905  0.00  0.00    -0.297 N 
ATOM     88  H   ASN A  12      -9.246  12.914  35.572  0.00  0.00    +0.150 HD
BRANCH  87  89
ATOM     89  CA  ASN A  12     -11.402  12.704  35.322  0.00  0.00    +0.158 C 
BRANCH  89  90
ATOM     90  C   ASN A  12     -11.908  11.574  34.418  0.00  0.00    +0.241 C 
ATOM     91  O   ASN A  12     -13.078  11.217  34.494  0.00  0.00    -0.273 OA
ATOM     92  N   ASN A  13     -11.013  10.992  33.592  0.00  0.00    -0.297 N 
ATOM     93  H   ASN A  13     -10.037  11.352  33.617  0.00  0.00    +0.150 HD
BRANCH  92  94
ATOM     94  CA  ASN A  13     -11.301   9.894  32.661  0.00  0.00    +0.158 C 
BRANCH  94  95
ATOM     95  C   ASN A  13     -11.659   8.581  33.384  0.00  0.00    +0.241 C 
ATOM     96  N   ILE A  14     -11.954   8.667  34.696  0.00  0.00    -0.298 N 
ATOM     97  H   ILE A  14     -11.901   9.611  35.129  0.00  0.00    +0.150 HD
ATOM     98  O   ASN A  13     -11.673   7.517  32.756  0.00  0.00    -0.273 OA
BRANCH  96  99
ATOM     99  CA  ILE A  14     -12.341   7.560  35.569  0.00  0.00    +0.137 C 
BRANCH  99 100
ATOM    100  CB  ILE A  14     -11.150   7.134  36.503  0.00  0.00    +0.026 C 
ATOM    101  CG2 ILE A  14     -11.595   6.488  37.818  0.00  0.00    +0.002 C 
BRANCH 100 102
ATOM    102  CG1 ILE A  14     -10.209   6.177  35.776  0.00  0.00    +0.002 C 
ATOM    103  CD1 ILE A  14      -8.947   6.732  35.454  0.00  0.00    +0.000 C 
ENDBRANCH 100 102
ENDBRANCH  99 100
BRANCH  99 104
ATOM    104  C   ILE A  14     -13.632   7.939  36.318  0.00  0.00    +0.227 C 
ATOM    105  O   ILE A  14     -14.629   7.220  36.223  0.00  0.00    -0.286 OA
ENDBRANCH  99 104
ENDBRANCH  96  99
ENDBRANCH  94  95
BRANCH  94 106
ATOM    106  CB  ASN A  13     -10.116   9.684  31.687  0.00  0.00    +0.114 C 
BRANCH 106 107
ATOM    107  CG  ASN A  13      -9.652  10.917  30.916  0.00  0.00    +0.222 C 
ATOM    108  OD1 ASN A  13     -10.344  11.962  30.825  0.00  0.00    -0.275 OA
ATOM    109  ND2 ASN A  13      -8.452  10.805  30.334  0.00  0.00    -0.329 N 
ATOM    110 HD21 ASN A  13      -7.907   9.924  30.431  0.00  0.00    +0.145 HD
ATOM    111 HD22 ASN A  13      -8.064  11.599  29.785  0.00  0.00    +0.145 HD
ENDBRANCH 106 107
ENDBRANCH  94 106
ENDBRANCH  92  94
ENDBRANCH  89  90
BRANCH  89 112
ATOM    112  CB  ASN A  12     -11.375  13.997  34.545  0.00  0.00    +0.114 C 
BRANCH 112 113
ATOM    113  CG  ASN A  12     -11.046  15.193  35.385  0.00  0.00    +0.222 C 
ATOM    114  OD1 ASN A  12     -11.472  15.327  36.545  0.00  0.00    -0.275 OA
ATOM    115  ND2 ASN A  12     -10.339  16.117  34.784  0.00  0.00    -0.329 N 
ATOM    116 HD21 ASN A  12     -10.114  17.004  35.279  0.00  0.00    +0.145 HD
ATOM    117 HD22 ASN A  12     -10.002  15.964  33.812  0.00  0.00    +0.145 HD
ENDBRANCH 112 113
ENDBRANCH  89 112
ENDBRANCH  87  89
ENDBRANCH  84  85
BRANCH  84 118
ATOM    118  CB  LEU A  11      -8.197  11.727  38.737  0.00  0.00    +0.029 C 
BRANCH 118 119
ATOM    119  CG  LEU A  11      -9.101  11.404  39.931  0.00  0.00    +0.002 C 
ATOM    120  CD2 LEU A  11      -8.911  12.406  41.014  0.00  0.00    +0.000 C 
ATOM    121  CD1 LEU A  11      -8.827  10.026  40.490  0.00  0.00    +0.000 C 
ENDBRANCH 118 119
ENDBRANCH  84 118
ENDBRANCH  81  84
ENDBRANCH  79  80
BRANCH  79 122
ATOM    122  CB  ASP A  10      -6.152  12.223  33.698  0.00  0.00    +0.143 C 
BRANCH 122 123
ATOM    123  CG  ASP A  10      -7.390  12.945  33.166  0.00  0.00    +0.367 C 
ATOM    124  OD2 ASP A  10      -8.499  12.591  33.567  0.00  0.00    -0.246 OA
ATOM    125  OD1 ASP A  10      -7.230  13.951  32.471  0.00  0.00    -0.246 OA
ENDBRANCH 122 123
ENDBRANCH  79 122
ENDBRANCH  77  79
ENDBRANCH  73  75
ENDBRANCH  70  73
ENDBRANCH  68  69
ENDBRANCH  66  68
ENDBRANCH   1  64
BRANCH   1 126
ATOM    126  CB  MET A   7      -1.399   5.777  34.191  0.00  0.00    +0.041 C 
BRANCH 126 127
ATOM    127  CG  MET A   7      -0.163   5.849  35.091  0.00  0.00    +0.060 C 
BRANCH 127 128
ATOM    128  SD  MET A   7       0.117   4.366  36.084  0.00  0.00    -0.139 S 
ATOM    129  CE  MET A   7       1.295   3.575  35.127  0.00  0.00    +0.069 C 
ENDBRANCH 127 128
ENDBRANCH 126 127
ENDBRANCH   1 126
TORSDOF 53
REMARK  Name = ../refined-set-2016/2yix/2yix_pocket.pdb
REMARK  259 active torsions:
REMARK  status: ('A' for Active; 'I' for Inactive)
REMARK    1  A    between atoms: _1  and  _3
REMARK    2  A    between atoms: _3  and  _4
REMARK    3  A    between atoms: _3  and  _6
REMARK    4  A    between atoms: _9  and  _11
REMARK    5  A    between atoms: _11  and  _12
REMARK    6  A    between atoms: _14  and  _16
REMARK    7  A    between atoms: _16  and  _17
REMARK    8  A    between atoms: _16  and  _19
REMARK    9  A    between atoms: _19  and  _20
REMARK   10  A    between atoms: _22  and  _24
REMARK   11  A    between atoms: _24  and  _25
REMARK   12  A    between atoms: _28  and  _30
REMARK   13  A    between atoms: _30  and  _31
REMARK   14  A    between atoms: _30  and  _33
REMARK   15  A    between atoms: _33  and  _34
REMARK   16  A    between atoms: _39  and  _40
REMARK   17  A    between atoms: _42  and  _44
REMARK   18  A    between atoms: _44  and  _45
REMARK   19  A    between atoms: _47  and  _49
REMARK   20  A    between atoms: _49  and  _50
REMARK   21  A    between atoms: _49  and  _52
REMARK   22  A    between atoms: _52  and  _53
REMARK   23  A    between atoms: _55  and  _57
REMARK   24  A    between atoms: _57  and  _58
REMARK   25  A    between atoms: _57  and  _60
REMARK   26  A    between atoms: _63  and  _65
REMARK   27  A    between atoms: _65  and  _66
REMARK   28  A    between atoms: _65  and  _68
REMARK   29  A    between atoms: _70  and  _72
REMARK   30  A    between atoms: _72  and  _73
REMARK   31  A    between atoms: _76  and  _78
REMARK   32  A    between atoms: _78  and  _79
REMARK   33  A    between atoms: _78  and  _81
REMARK   34  A    between atoms: _81  and  _82
REMARK   35  A    between atoms: _82  and  _83
REMARK   36  A    between atoms: _83  and  _84
REMARK   37  A    between atoms: _93  and  _95
REMARK   38  A    between atoms: _95  and  _96
REMARK   39  A    between atoms: _95  and  _98
REMARK   40  A    between atoms: _101  and  _103
REMARK   41  A    between atoms: _103  and  _104
REMARK   42  A    between atoms: _107  and  _109
REMARK   43  A    between atoms: _109  and  _110
REMARK   44  A    between atoms: _109  and  _112
REMARK   45  A    between atoms: _115  and  _117
REMARK   46  A    between atoms: _117  and  _118
REMARK   47  A    between atoms: _117  and  _120
REMARK   48  A    between atoms: _120  and  _121
REMARK   49  A    between atoms: _121  and  _122
REMARK   50  A    between atoms: _122  and  _123
REMARK   51  A    between atoms: _123  and  _124
REMARK   52  A    between atoms: _128  and  _130
REMARK   53  A    between atoms: _130  and  _131
REMARK   54  A    between atoms: _130  and  _133
REMARK   55  A    between atoms: _133  and  _134
REMARK   56  A    between atoms: _134  and  _135
REMARK   57  A    between atoms: _135  and  _136
REMARK   58  A    between atoms: _136  and  _137
REMARK   59  A    between atoms: _141  and  _143
REMARK   60  A    between atoms: _143  and  _144
REMARK   61  A    between atoms: _143  and  _146
REMARK   62  A    between atoms: _146  and  _147
REMARK   63  A    between atoms: _150  and  _152
REMARK   64  A    between atoms: _152  and  _153
REMARK   65  A    between atoms: _152  and  _155
REMARK   66  A    between atoms: _155  and  _156
REMARK   67  A    between atoms: _156  and  _157
REMARK   68  A    between atoms: _157  and  _158
REMARK   69  A    between atoms: _167  and  _169
REMARK   70  A    between atoms: _169  and  _170
REMARK   71  A    between atoms: _169  and  _172
REMARK   72  A    between atoms: _172  and  _173
REMARK   73  A    between atoms: _173  and  _174
REMARK   74  A    between atoms: _174  and  _175
REMARK   75  A    between atoms: _184  and  _186
REMARK   76  A    between atoms: _186  and  _187
REMARK   77  A    between atoms: _186  and  _189
REMARK   78  A    between atoms: _189  and  _190
REMARK   79  A    between atoms: _190  and  _191
REMARK   80  A    between atoms: _194  and  _196
REMARK   81  A    between atoms: _196  and  _197
REMARK   82  A    between atoms: _196  and  _199
REMARK   83  A    between atoms: _199  and  _200
REMARK   84  A    between atoms: _203  and  _205
REMARK   85  A    between atoms: _205  and  _206
REMARK   86  A    between atoms: _205  and  _208
REMARK   87  A    between atoms: _208  and  _209
REMARK   88  A    between atoms: _209  and  _210
REMARK   89  A    between atoms: _210  and  _211
REMARK   90  A    between atoms: _220  and  _222
REMARK   91  A    between atoms: _222  and  _223
REMARK   92  A    between atoms: _222  and  _225
REMARK   93  A    between atoms: _225  and  _226
REMARK   94  A    between atoms: _229  and  _231
REMARK   95  A    between atoms: _231  and  _232
REMARK   96  A    between atoms: _231  and  _234
REMARK   97  A    between atoms: _234  and  _235
REMARK   98  A    between atoms: _238  and  _240
REMARK   99  A    between atoms: _240  and  _241
REMARK  100  A    between atoms: _240  and  _243
REMARK  101  A    between atoms: _243  and  _244
REMARK  102  A    between atoms: _244  and  _245
REMARK  103  A    between atoms: _245  and  _246
REMARK  104  A    between atoms: _246  and  _247
REMARK  105  A    between atoms: _251  and  _253
REMARK  106  A    between atoms: _253  and  _254
REMARK  107  A    between atoms: _253  and  _256
REMARK  108  A    between atoms: _256  and  _257
REMARK  109  A    between atoms: _262  and  _264
REMARK  110  A    between atoms: _264  and  _265
REMARK  111  A    between atoms: _264  and  _267
REMARK  112  A    between atoms: _267  and  _268
REMARK  113  A    between atoms: _268  and  _269
REMARK  114  A    between atoms: _271  and  _273
REMARK  115  A    between atoms: _273  and  _274
REMARK  116  A    between atoms: _273  and  _276
REMARK  117  A    between atoms: _279  and  _281
REMARK  118  A    between atoms: _281  and  _282
REMARK  119  A    between atoms: _281  and  _284
REMARK  120  A    between atoms: _284  and  _285
REMARK  121  A    between atoms: _288  and  _290
REMARK  122  A    between atoms: _290  and  _291
REMARK  123  A    between atoms: _293  and  _295
REMARK  124  A    between atoms: _295  and  _296
REMARK  125  A    between atoms: _295  and  _298
REMARK  126  A    between atoms: _298  and  _299
REMARK  127  A    between atoms: _302  and  _304
REMARK  128  A    between atoms: _304  and  _305
REMARK  129  A    between atoms: _304  and  _307
REMARK  130  A    between atoms: _307  and  _308
REMARK  131  A    between atoms: _311  and  _313
REMARK  132  A    between atoms: _313  and  _314
REMARK  133  A    between atoms: _313  and  _316
REMARK  134  A    between atoms: _316  and  _317
REMARK  135  A    between atoms: _320  and  _322
REMARK  136  A    between atoms: _322  and  _323
REMARK  137  A    between atoms: _322  and  _325
REMARK  138  A    between atoms: _325  and  _326
REMARK  139  A    between atoms: _331  and  _332
REMARK  140  A    between atoms: _334  and  _336
REMARK  141  A    between atoms: _336  and  _337
REMARK  142  A    between atoms: _336  and  _339
REMARK  143  A    between atoms: _339  and  _340
REMARK  144  A    between atoms: _343  and  _345
REMARK  145  A    between atoms: _345  and  _346
REMARK  146  A    between atoms: _345  and  _348
REMARK  147  A    between atoms: _351  and  _353
REMARK  148  A    between atoms: _353  and  _354
REMARK  149  A    between atoms: _353  and  _356
REMARK  150  A    between atoms: _356  and  _357
REMARK  151  A    between atoms: _360  and  _362
REMARK  152  A    between atoms: _362  and  _363
REMARK  153  A    between atoms: _362  and  _365
REMARK  154  A    between atoms: _365  and  _366
REMARK  155  A    between atoms: _371  and  _373
REMARK  156  A    between atoms: _373  and  _374
REMARK  157  A    between atoms: _373  and  _376
REMARK  158  A    between atoms: _376  and  _377
REMARK  159  A    between atoms: _380  and  _382
REMARK  160  A    between atoms: _382  and  _383
REMARK  161  A    between atoms: _382  and  _385
REMARK  162  A    between atoms: _385  and  _386
REMARK  163  A    between atoms: _386  and  _387
REMARK  164  A    between atoms: _389  and  _391
REMARK  165  A    between atoms: _391  and  _392
REMARK  166  A    between atoms: _394  and  _396
REMARK  167  A    between atoms: _396  and  _397
REMARK  168  A    between atoms: _400  and  _402
REMARK  169  A    between atoms: _402  and  _403
REMARK  170  A    between atoms: _402  and  _405
REMARK  171  A    between atoms: _405  and  _406
REMARK  172  A    between atoms: _409  and  _411
REMARK  173  A    between atoms: _411  and  _412
REMARK  174  A    between atoms: _411  and  _414
REMARK  175  A    between atoms: _414  and  _415
REMARK  176  A    between atoms: _418  and  _420
REMARK  177  A    between atoms: _420  and  _421
REMARK  178  A    between atoms: _420  and  _423
REMARK  179  A    between atoms: _423  and  _424
REMARK  180  A    between atoms: _429  and  _431
REMARK  181  A    between atoms: _431  and  _432
REMARK  182  A    between atoms: _431  and  _434
REMARK  183  A    between atoms: _434  and  _435
REMARK  184  A    between atoms: _440  and  _442
REMARK  185  A    between atoms: _442  and  _443
REMARK  186  A    between atoms: _442  and  _445
REMARK  187  A    between atoms: _445  and  _446
REMARK  188  A    between atoms: _449  and  _451
REMARK  189  A    between atoms: _451  and  _452
REMARK  190  A    between atoms: _451  and  _454
REMARK  191  A    between atoms: _454  and  _455
REMARK  192  A    between atoms: _458  and  _460
REMARK  193  A    between atoms: _460  and  _461
REMARK  194  A    between atoms: _460  and  _463
REMARK  195  A    between atoms: _463  and  _464
REMARK  196  A    between atoms: _470  and  _471
REMARK  197  A    between atoms: _476  and  _478
REMARK  198  A    between atoms: _478  and  _479
REMARK  199  A    between atoms: _478  and  _481
REMARK  200  A    between atoms: _481  and  _482
REMARK  201  A    between atoms: _484  and  _486
REMARK  202  A    between atoms: _486  and  _487
REMARK  203  A    between atoms: _486  and  _489
REMARK  204  A    between atoms: _489  and  _490
REMARK  205  A    between atoms: _495  and  _497
REMARK  206  A    between atoms: _497  and  _498
REMARK  207  A    between atoms: _497  and  _500
REMARK  208  A    between atoms: _500  and  _501
REMARK  209  A    between atoms: _504  and  _506
REMARK  210  A    between atoms: _506  and  _507
REMARK  211  A    between atoms: _510  and  _512
REMARK  212  A    between atoms: _512  and  _513
REMARK  213  A    between atoms: _512  and  _515
REMARK  214  A    between atoms: _518  and  _520
REMARK  215  A    between atoms: _520  and  _521
REMARK  216  A    between atoms: _520  and  _523
REMARK  217  A    between atoms: _523  and  _524
REMARK  218  A    between atoms: _529  and  _531
REMARK  219  A    between atoms: _531  and  _532
REMARK  220  A    between atoms: _531  and  _534
REMARK  221  A    between atoms: _534  and  _535
REMARK  222  A    between atoms: _535  and  _536
REMARK  223  A    between atoms: _536  and  _537
REMARK  224  A    between atoms: _537  and  _538
REMARK  225  A    between atoms: _542  and  _544
REMARK  226  A    between atoms: _544  and  _545
REMARK  227  A    between atoms: _544  and  _547
REMARK  228  A    between atoms: _547  and  _548
REMARK  229  A    between atoms: _551  and  _553
REMARK  230  A    between atoms: _553  and  _554
REMARK  231  A    between atoms: _553  and  _556
REMARK  232  A    between atoms: _556  and  _557
REMARK  233  A    between atoms: _560  and  _562
REMARK  234  A    between atoms: _562  and  _563
REMARK  235  A    between atoms: _562  and  _565
REMARK  236  A    between atoms: _565  and  _566
REMARK  237  A    between atoms: _569  and  _571
REMARK  238  A    between atoms: _571  and  _572
REMARK  239  A    between atoms: _571  and  _574
REMARK  240  A    between atoms: _574  and  _575
REMARK  241  A    between atoms: _581  and  _583
REMARK  242  A    between atoms: _583  and  _584
REMARK  243  A    between atoms: _586  and  _588
REMARK  244  A    between atoms: _588  and  _589
REMARK  245  A    between atoms: _588  and  _591
REMARK  246  A    between atoms: _591  and  _592
REMARK  247  A    between atoms: _595  and  _597
REMARK  248  A    between atoms: _597  and  _598
REMARK  249  A    between atoms: _601  and  _603
REMARK  250  A    between atoms: _603  and  _604
REMARK  251  A    between atoms: _603  and  _606
REMARK  252  A    between atoms: _606  and  _607
REMARK  253  A    between atoms: _607  and  _608
REMARK  254  A    between atoms: _608  and  _609
REMARK  255  A    between atoms: _618  and  _620
REMARK  256  A    between atoms: _620  and  _621
REMARK  257  A    between atoms: _620  and  _623
REMARK  258  A    between atoms: _623  and  _624
REMARK  259  A    between atoms: _629  and  _630
REMARK                            x       y       z     vdW  Elec       q    Type
REMARK                         _______ _______ _______ _____ _____    ______ ____
ROOT
ATOM      1  CA  ILE A   1       9.344  20.281  45.861  0.00  0.00    +0.133 C 
ENDROOT
BRANCH   1   2
ATOM      2  N   ILE A   1       9.989  19.981  47.145  0.00  0.00    -0.239 NA
ATOM      3  H   ILE A   1       9.801  19.042  47.552  0.00  0.00    +0.142 HD
ENDBRANCH   1   2
BRANCH   1   4
ATOM      4  C   ILE A   1       7.863  20.481  46.183  0.00  0.00    +0.224 C 
ATOM      5  O   ILE A   1       7.301  19.777  47.024  0.00  0.00    -0.287 OA
ENDBRANCH   1   4
BRANCH   1   6
ATOM      6  CB  ILE A   1       9.549  19.156  44.781  0.00  0.00    +0.023 C 
ATOM      7  CG2 ILE A   1       8.663  19.349  43.511  0.00  0.00    +0.002 C 
BRANCH   6   8
ATOM      8  CG1 ILE A   1      11.005  19.019  44.384  0.00  0.00    +0.002 C 
ATOM      9  CD1 ILE A   1      11.341  17.594  43.858  0.00  0.00    +0.000 C 
ENDBRANCH   6   8
ENDBRANCH   1   6
TORSDOF 4
REMARK  Name = ../refined-set-2016/2yix/2yix_pocket.pdb
REMARK  259 active torsions:
REMARK  status: ('A' for Active; 'I' for Inactive)
REMARK    1  A    between atoms: _1  and  _3
REMARK    2  A    between atoms: _3  and  _4
REMARK    3  A    between atoms: _3  and  _6
REMARK    4  A    between atoms: _9  and  _11
REMARK    5  A    between atoms: _11  and  _12
REMARK    6  A    between atoms: _14  and  _16
REMARK    7  A    between atoms: _16  and  _17
REMARK    8  A    between atoms: _16  and  _19
REMARK    9  A    between atoms: _19  and  _20
REMARK   10  A    between atoms: _22  and  _24
REMARK   11  A    between atoms: _24  and  _25
REMARK   12  A    between atoms: _28  and  _30
REMARK   13  A    between atoms: _30  and  _31
REMARK   14  A    between atoms: _30  and  _33
REMARK   15  A    between atoms: _33  and  _34
REMARK   16  A    between atoms: _39  and  _40
REMARK   17  A    between atoms: _42  and  _44
REMARK   18  A    between atoms: _44  and  _45
REMARK   19  A    between atoms: _47  and  _49
REMARK   20  A    between atoms: _49  and  _50
REMARK   21  A    between atoms: _49  and  _52
REMARK   22  A    between atoms: _52  and  _53
REMARK   23  A    between atoms: _55  and  _57
REMARK   24  A    between atoms: _57  and  _58
REMARK   25  A    between atoms: _57  and  _60
REMARK   26  A    between atoms: _63  and  _65
REMARK   27  A    between atoms: _65  and  _66
REMARK   28  A    between atoms: _65  and  _68
REMARK   29  A    between atoms: _70  and  _72
REMARK   30  A    between atoms: _72  and  _73
REMARK   31  A    between atoms: _76  and  _78
REMARK   32  A    between atoms: _78  and  _79
REMARK   33  A    between atoms: _78  and  _81
REMARK   34  A    between atoms: _81  and  _82
REMARK   35  A    between atoms: _82  and  _83
REMARK   36  A    between atoms: _83  and  _84
REMARK   37  A    between atoms: _93  and  _95
REMARK   38  A    between atoms: _95  and  _96
REMARK   39  A    between atoms: _95  and  _98
REMARK   40  A    between atoms: _101  and  _103
REMARK   41  A    between atoms: _103  and  _104
REMARK   42  A    between atoms: _107  and  _109
REMARK   43  A    between atoms: _109  and  _110
REMARK   44  A    between atoms: _109  and  _112
REMARK   45  A    between atoms: _115  and  _117
REMARK   46  A    between atoms: _117  and  _118
REMARK   47  A    between atoms: _117  and  _120
REMARK   48  A    between atoms: _120  and  _121
REMARK   49  A    between atoms: _121  and  _122
REMARK   50  A    between atoms: _122  and  _123
REMARK   51  A    between atoms: _123  and  _124
REMARK   52  A    between atoms: _128  and  _130
REMARK   53  A    between atoms: _130  and  _131
REMARK   54  A    between atoms: _130  and  _133
REMARK   55  A    between atoms: _133  and  _134
REMARK   56  A    between atoms: _134  and  _135
REMARK   57  A    between atoms: _135  and  _136
REMARK   58  A    between atoms: _136  and  _137
REMARK   59  A    between atoms: _141  and  _143
REMARK   60  A    between atoms: _143  and  _144
REMARK   61  A    between atoms: _143  and  _146
REMARK   62  A    between atoms: _146  and  _147
REMARK   63  A    between atoms: _150  and  _152
REMARK   64  A    between atoms: _152  and  _153
REMARK   65  A    between atoms: _152  and  _155
REMARK   66  A    between atoms: _155  and  _156
REMARK   67  A    between atoms: _156  and  _157
REMARK   68  A    between atoms: _157  and  _158
REMARK   69  A    between atoms: _167  and  _169
REMARK   70  A    between atoms: _169  and  _170
REMARK   71  A    between atoms: _169  and  _172
REMARK   72  A    between atoms: _172  and  _173
REMARK   73  A    between atoms: _173  and  _174
REMARK   74  A    between atoms: _174  and  _175
REMARK   75  A    between atoms: _184  and  _186
REMARK   76  A    between atoms: _186  and  _187
REMARK   77  A    between atoms: _186  and  _189
REMARK   78  A    between atoms: _189  and  _190
REMARK   79  A    between atoms: _190  and  _191
REMARK   80  A    between atoms: _194  and  _196
REMARK   81  A    between atoms: _196  and  _197
REMARK   82  A    between atoms: _196  and  _199
REMARK   83  A    between atoms: _199  and  _200
REMARK   84  A    between atoms: _203  and  _205
REMARK   85  A    between atoms: _205  and  _206
REMARK   86  A    between atoms: _205  and  _208
REMARK   87  A    between atoms: _208  and  _209
REMARK   88  A    between atoms: _209  and  _210
REMARK   89  A    between atoms: _210  and  _211
REMARK   90  A    between atoms: _220  and  _222
REMARK   91  A    between atoms: _222  and  _223
REMARK   92  A    between atoms: _222  and  _225
REMARK   93  A    between atoms: _225  and  _226
REMARK   94  A    between atoms: _229  and  _231
REMARK   95  A    between atoms: _231  and  _232
REMARK   96  A    between atoms: _231  and  _234
REMARK   97  A    between atoms: _234  and  _235
REMARK   98  A    between atoms: _238  and  _240
REMARK   99  A    between atoms: _240  and  _241
REMARK  100  A    between atoms: _240  and  _243
REMARK  101  A    between atoms: _243  and  _244
REMARK  102  A    between atoms: _244  and  _245
REMARK  103  A    between atoms: _245  and  _246
REMARK  104  A    between atoms: _246  and  _247
REMARK  105  A    between atoms: _251  and  _253
REMARK  106  A    between atoms: _253  and  _254
REMARK  107  A    between atoms: _253  and  _256
REMARK  108  A    between atoms: _256  and  _257
REMARK  109  A    between atoms: _262  and  _264
REMARK  110  A    between atoms: _264  and  _265
REMARK  111  A    between atoms: _264  and  _267
REMARK  112  A    between atoms: _267  and  _268
REMARK  113  A    between atoms: _268  and  _269
REMARK  114  A    between atoms: _271  and  _273
REMARK  115  A    between atoms: _273  and  _274
REMARK  116  A    between atoms: _273  and  _276
REMARK  117  A    between atoms: _279  and  _281
REMARK  118  A    between atoms: _281  and  _282
REMARK  119  A    between atoms: _281  and  _284
REMARK  120  A    between atoms: _284  and  _285
REMARK  121  A    between atoms: _288  and  _290
REMARK  122  A    between atoms: _290  and  _291
REMARK  123  A    between atoms: _293  and  _295
REMARK  124  A    between atoms: _295  and  _296
REMARK  125  A    between atoms: _295  and  _298
REMARK  126  A    between atoms: _298  and  _299
REMARK  127  A    between atoms: _302  and  _304
REMARK  128  A    between atoms: _304  and  _305
REMARK  129  A    between atoms: _304  and  _307
REMARK  130  A    between atoms: _307  and  _308
REMARK  131  A    between atoms: _311  and  _313
REMARK  132  A    between atoms: _313  and  _314
REMARK  133  A    between atoms: _313  and  _316
REMARK  134  A    between atoms: _316  and  _317
REMARK  135  A    between atoms: _320  and  _322
REMARK  136  A    between atoms: _322  and  _323
REMARK  137  A    between atoms: _322  and  _325
REMARK  138  A    between atoms: _325  and  _326
REMARK  139  A    between atoms: _331  and  _332
REMARK  140  A    between atoms: _334  and  _336
REMARK  141  A    between atoms: _336  and  _337
REMARK  142  A    between atoms: _336  and  _339
REMARK  143  A    between atoms: _339  and  _340
REMARK  144  A    between atoms: _343  and  _345
REMARK  145  A    between atoms: _345  and  _346
REMARK  146  A    between atoms: _345  and  _348
REMARK  147  A    between atoms: _351  and  _353
REMARK  148  A    between atoms: _353  and  _354
REMARK  149  A    between atoms: _353  and  _356
REMARK  150  A    between atoms: _356  and  _357
REMARK  151  A    between atoms: _360  and  _362
REMARK  152  A    between atoms: _362  and  _363
REMARK  153  A    between atoms: _362  and  _365
REMARK  154  A    between atoms: _365  and  _366
REMARK  155  A    between atoms: _371  and  _373
REMARK  156  A    between atoms: _373  and  _374
REMARK  157  A    between atoms: _373  and  _376
REMARK  158  A    between atoms: _376  and  _377
REMARK  159  A    between atoms: _380  and  _382
REMARK  160  A    between atoms: _382  and  _383
REMARK  161  A    between atoms: _382  and  _385
REMARK  162  A    between atoms: _385  and  _386
REMARK  163  A    between atoms: _386  and  _387
REMARK  164  A    between atoms: _389  and  _391
REMARK  165  A    between atoms: _391  and  _392
REMARK  166  A    between atoms: _394  and  _396
REMARK  167  A    between atoms: _396  and  _397
REMARK  168  A    between atoms: _400  and  _402
REMARK  169  A    between atoms: _402  and  _403
REMARK  170  A    between atoms: _402  and  _405
REMARK  171  A    between atoms: _405  and  _406
REMARK  172  A    between atoms: _409  and  _411
REMARK  173  A    between atoms: _411  and  _412
REMARK  174  A    between atoms: _411  and  _414
REMARK  175  A    between atoms: _414  and  _415
REMARK  176  A    between atoms: _418  and  _420
REMARK  177  A    between atoms: _420  and  _421
REMARK  178  A    between atoms: _420  and  _423
REMARK  179  A    between atoms: _423  and  _424
REMARK  180  A    between atoms: _429  and  _431
REMARK  181  A    between atoms: _431  and  _432
REMARK  182  A    between atoms: _431  and  _434
REMARK  183  A    between atoms: _434  and  _435
REMARK  184  A    between atoms: _440  and  _442
REMARK  185  A    between atoms: _442  and  _443
REMARK  186  A    between atoms: _442  and  _445
REMARK  187  A    between atoms: _445  and  _446
REMARK  188  A    between atoms: _449  and  _451
REMARK  189  A    between atoms: _451  and  _452
REMARK  190  A    between atoms: _451  and  _454
REMARK  191  A    between atoms: _454  and  _455
REMARK  192  A    between atoms: _458  and  _460
REMARK  193  A    between atoms: _460  and  _461
REMARK  194  A    between atoms: _460  and  _463
REMARK  195  A    between atoms: _463  and  _464
REMARK  196  A    between atoms: _470  and  _471
REMARK  197  A    between atoms: _476  and  _478
REMARK  198  A    between atoms: _478  and  _479
REMARK  199  A    between atoms: _478  and  _481
REMARK  200  A    between atoms: _481  and  _482
REMARK  201  A    between atoms: _484  and  _486
REMARK  202  A    between atoms: _486  and  _487
REMARK  203  A    between atoms: _486  and  _489
REMARK  204  A    between atoms: _489  and  _490
REMARK  205  A    between atoms: _495  and  _497
REMARK  206  A    between atoms: _497  and  _498
REMARK  207  A    between atoms: _497  and  _500
REMARK  208  A    between atoms: _500  and  _501
REMARK  209  A    between atoms: _504  and  _506
REMARK  210  A    between atoms: _506  and  _507
REMARK  211  A    between atoms: _510  and  _512
REMARK  212  A    between atoms: _512  and  _513
REMARK  213  A    between atoms: _512  and  _515
REMARK  214  A    between atoms: _518  and  _520
REMARK  215  A    between atoms: _520  and  _521
REMARK  216  A    between atoms: _520  and  _523
REMARK  217  A    between atoms: _523  and  _524
REMARK  218  A    between atoms: _529  and  _531
REMARK  219  A    between atoms: _531  and  _532
REMARK  220  A    between atoms: _531  and  _534
REMARK  221  A    between atoms: _534  and  _535
REMARK  222  A    between atoms: _535  and  _536
REMARK  223  A    between atoms: _536  and  _537
REMARK  224  A    between atoms: _537  and  _538
REMARK  225  A    between atoms: _542  and  _544
REMARK  226  A    between atoms: _544  and  _545
REMARK  227  A    between atoms: _544  and  _547
REMARK  228  A    between atoms: _547  and  _548
REMARK  229  A    between atoms: _551  and  _553
REMARK  230  A    between atoms: _553  and  _554
REMARK  231  A    between atoms: _553  and  _556
REMARK  232  A    between atoms: _556  and  _557
REMARK  233  A    between atoms: _560  and  _562
REMARK  234  A    between atoms: _562  and  _563
REMARK  235  A    between atoms: _562  and  _565
REMARK  236  A    between atoms: _565  and  _566
REMARK  237  A    between atoms: _569  and  _571
REMARK  238  A    between atoms: _571  and  _572
REMARK  239  A    between atoms: _571  and  _574
REMARK  240  A    between atoms: _574  and  _575
REMARK  241  A    between atoms: _581  and  _583
REMARK  242  A    between atoms: _583  and  _584
REMARK  243  A    between atoms: _586  and  _588
REMARK  244  A    between atoms: _588  and  _589
REMARK  245  A    between atoms: _588  and  _591
REMARK  246  A    between atoms: _591  and  _592
REMARK  247  A    between atoms: _595  and  _597
REMARK  248  A    between atoms: _597  and  _598
REMARK  249  A    between atoms: _601  and  _603
REMARK  250  A    between atoms: _603  and  _604
REMARK  251  A    between atoms: _603  and  _606
REMARK  252  A    between atoms: _606  and  _607
REMARK  253  A    between atoms: _607  and  _608
REMARK  254  A    between atoms: _608  and  _609
REMARK  255  A    between atoms: _618  and  _620
REMARK  256  A    between atoms: _620  and  _621
REMARK  257  A    between atoms: _620  and  _623
REMARK  258  A    between atoms: _623  and  _624
REMARK  259  A    between atoms: _629  and  _630
REMARK                            x       y       z     vdW  Elec       q    Type
REMARK                         _______ _______ _______ _____ _____    ______ ____
ROOT
ATOM      1  CB  HIS A   1       2.157  19.772  43.234  0.00  0.00    +0.072 C 
ENDROOT
BRANCH   1   2
ATOM      2  CG  HIS A   1       1.721  19.132  41.962  0.00  0.00    +0.082 A 
ATOM      3  CD2 HIS A   1       1.819  17.843  41.578  0.00  0.00    +0.115 A 
ATOM      4  NE2 HIS A   1       1.371  17.779  40.292  0.00  0.00    -0.221 NA
ATOM      5  CE1 HIS A   1       1.078  19.019  39.916  0.00  0.00    +0.199 A 
ATOM      6  ND1 HIS A   1       1.283  19.884  40.895  0.00  0.00    -0.227 NA
ENDBRANCH   1   2
BRANCH   1   7
ATOM      7  CA  HIS A   1       3.365  20.716  43.010  0.00  0.00    +0.139 C 
BRANCH   7   8
ATOM      8  N   HIS A   1       4.062  20.987  44.262  0.00  0.00    -0.239 NA
ATOM      9  H   HIS A   1       3.610  20.719  45.160  0.00  0.00    +0.142 HD
ENDBRANCH   7   8
BRANCH   7  10
ATOM     10  C   HIS A   1       2.911  22.035  42.386  0.00  0.00    +0.224 C 
ATOM     11  O   HIS A   1       3.323  22.360  41.265  0.00  0.00    -0.287 OA
ENDBRANCH   7  10
ENDBRANCH   1   7
TORSDOF 4
REMARK  Name = ../refined-set-2016/2yix/2yix_pocket.pdb
REMARK  259 active torsions:
REMARK  status: ('A' for Active; 'I' for Inactive)
REMARK    1  A    between atoms: _1  and  _3
REMARK    2  A    between atoms: _3  and  _4
REMARK    3  A    between atoms: _3  and  _6
REMARK    4  A    between atoms: _9  and  _11
REMARK    5  A    between atoms: _11  and  _12
REMARK    6  A    between atoms: _14  and  _16
REMARK    7  A    between atoms: _16  and  _17
REMARK    8  A    between atoms: _16  and  _19
REMARK    9  A    between atoms: _19  and  _20
REMARK   10  A    between atoms: _22  and  _24
REMARK   11  A    between atoms: _24  and  _25
REMARK   12  A    between atoms: _28  and  _30
REMARK   13  A    between atoms: _30  and  _31
REMARK   14  A    between atoms: _30  and  _33
REMARK   15  A    between atoms: _33  and  _34
REMARK   16  A    between atoms: _39  and  _40
REMARK   17  A    between atoms: _42  and  _44
REMARK   18  A    between atoms: _44  and  _45
REMARK   19  A    between atoms: _47  and  _49
REMARK   20  A    between atoms: _49  and  _50
REMARK   21  A    between atoms: _49  and  _52
REMARK   22  A    between atoms: _52  and  _53
REMARK   23  A    between atoms: _55  and  _57
REMARK   24  A    between atoms: _57  and  _58
REMARK   25  A    between atoms: _57  and  _60
REMARK   26  A    between atoms: _63  and  _65
REMARK   27  A    between atoms: _65  and  _66
REMARK   28  A    between atoms: _65  and  _68
REMARK   29  A    between atoms: _70  and  _72
REMARK   30  A    between atoms: _72  and  _73
REMARK   31  A    between atoms: _76  and  _78
REMARK   32  A    between atoms: _78  and  _79
REMARK   33  A    between atoms: _78  and  _81
REMARK   34  A    between atoms: _81  and  _82
REMARK   35  A    between atoms: _82  and  _83
REMARK   36  A    between atoms: _83  and  _84
REMARK   37  A    between atoms: _93  and  _95
REMARK   38  A    between atoms: _95  and  _96
REMARK   39  A    between atoms: _95  and  _98
REMARK   40  A    between atoms: _101  and  _103
REMARK   41  A    between atoms: _103  and  _104
REMARK   42  A    between atoms: _107  and  _109
REMARK   43  A    between atoms: _109  and  _110
REMARK   44  A    between atoms: _109  and  _112
REMARK   45  A    between atoms: _115  and  _117
REMARK   46  A    between atoms: _117  and  _118
REMARK   47  A    between atoms: _117  and  _120
REMARK   48  A    between atoms: _120  and  _121
REMARK   49  A    between atoms: _121  and  _122
REMARK   50  A    between atoms: _122  and  _123
REMARK   51  A    between atoms: _123  and  _124
REMARK   52  A    between atoms: _128  and  _130
REMARK   53  A    between atoms: _130  and  _131
REMARK   54  A    between atoms: _130  and  _133
REMARK   55  A    between atoms: _133  and  _134
REMARK   56  A    between atoms: _134  and  _135
REMARK   57  A    between atoms: _135  and  _136
REMARK   58  A    between atoms: _136  and  _137
REMARK   59  A    between atoms: _141  and  _143
REMARK   60  A    between atoms: _143  and  _144
REMARK   61  A    between atoms: _143  and  _146
REMARK   62  A    between atoms: _146  and  _147
REMARK   63  A    between atoms: _150  and  _152
REMARK   64  A    between atoms: _152  and  _153
REMARK   65  A    between atoms: _152  and  _155
REMARK   66  A    between atoms: _155  and  _156
REMARK   67  A    between atoms: _156  and  _157
REMARK   68  A    between atoms: _157  and  _158
REMARK   69  A    between atoms: _167  and  _169
REMARK   70  A    between atoms: _169  and  _170
REMARK   71  A    between atoms: _169  and  _172
REMARK   72  A    between atoms: _172  and  _173
REMARK   73  A    between atoms: _173  and  _174
REMARK   74  A    between atoms: _174  and  _175
REMARK   75  A    between atoms: _184  and  _186
REMARK   76  A    between atoms: _186  and  _187
REMARK   77  A    between atoms: _186  and  _189
REMARK   78  A    between atoms: _189  and  _190
REMARK   79  A    between atoms: _190  and  _191
REMARK   80  A    between atoms: _194  and  _196
REMARK   81  A    between atoms: _196  and  _197
REMARK   82  A    between atoms: _196  and  _199
REMARK   83  A    between atoms: _199  and  _200
REMARK   84  A    between atoms: _203  and  _205
REMARK   85  A    between atoms: _205  and  _206
REMARK   86  A    between atoms: _205  and  _208
REMARK   87  A    between atoms: _208  and  _209
REMARK   88  A    between atoms: _209  and  _210
REMARK   89  A    between atoms: _210  and  _211
REMARK   90  A    between atoms: _220  and  _222
REMARK   91  A    between atoms: _222  and  _223
REMARK   92  A    between atoms: _222  and  _225
REMARK   93  A    between atoms: _225  and  _226
REMARK   94  A    between atoms: _229  and  _231
REMARK   95  A    between atoms: _231  and  _232
REMARK   96  A    between atoms: _231  and  _234
REMARK   97  A    between atoms: _234  and  _235
REMARK   98  A    between atoms: _238  and  _240
REMARK   99  A    between atoms: _240  and  _241
REMARK  100  A    between atoms: _240  and  _243
REMARK  101  A    between atoms: _243  and  _244
REMARK  102  A    between atoms: _244  and  _245
REMARK  103  A    between atoms: _245  and  _246
REMARK  104  A    between atoms: _246  and  _247
REMARK  105  A    between atoms: _251  and  _253
REMARK  106  A    between atoms: _253  and  _254
REMARK  107  A    between atoms: _253  and  _256
REMARK  108  A    between atoms: _256  and  _257
REMARK  109  A    between atoms: _262  and  _264
REMARK  110  A    between atoms: _264  and  _265
REMARK  111  A    between atoms: _264  and  _267
REMARK  112  A    between atoms: _267  and  _268
REMARK  113  A    between atoms: _268  and  _269
REMARK  114  A    between atoms: _271  and  _273
REMARK  115  A    between atoms: _273  and  _274
REMARK  116  A    between atoms: _273  and  _276
REMARK  117  A    between atoms: _279  and  _281
REMARK  118  A    between atoms: _281  and  _282
REMARK  119  A    between atoms: _281  and  _284
REMARK  120  A    between atoms: _284  and  _285
REMARK  121  A    between atoms: _288  and  _290
REMARK  122  A    between atoms: _290  and  _291
REMARK  123  A    between atoms: _293  and  _295
REMARK  124  A    between atoms: _295  and  _296
REMARK  125  A    between atoms: _295  and  _298
REMARK  126  A    between atoms: _298  and  _299
REMARK  127  A    between atoms: _302  and  _304
REMARK  128  A    between atoms: _304  and  _305
REMARK  129  A    between atoms: _304  and  _307
REMARK  130  A    between atoms: _307  and  _308
REMARK  131  A    between atoms: _311  and  _313
REMARK  132  A    between atoms: _313  and  _314
REMARK  133  A    between atoms: _313  and  _316
REMARK  134  A    between atoms: _316  and  _317
REMARK  135  A    between atoms: _320  and  _322
REMARK  136  A    between atoms: _322  and  _323
REMARK  137  A    between atoms: _322  and  _325
REMARK  138  A    between atoms: _325  and  _326
REMARK  139  A    between atoms: _331  and  _332
REMARK  140  A    between atoms: _334  and  _336
REMARK  141  A    between atoms: _336  and  _337
REMARK  142  A    between atoms: _336  and  _339
REMARK  143  A    between atoms: _339  and  _340
REMARK  144  A    between atoms: _343  and  _345
REMARK  145  A    between atoms: _345  and  _346
REMARK  146  A    between atoms: _345  and  _348
REMARK  147  A    between atoms: _351  and  _353
REMARK  148  A    between atoms: _353  and  _354
REMARK  149  A    between atoms: _353  and  _356
REMARK  150  A    between atoms: _356  and  _357
REMARK  151  A    between atoms: _360  and  _362
REMARK  152  A    between atoms: _362  and  _363
REMARK  153  A    between atoms: _362  and  _365
REMARK  154  A    between atoms: _365  and  _366
REMARK  155  A    between atoms: _371  and  _373
REMARK  156  A    between atoms: _373  and  _374
REMARK  157  A    between atoms: _373  and  _376
REMARK  158  A    between atoms: _376  and  _377
REMARK  159  A    between atoms: _380  and  _382
REMARK  160  A    between atoms: _382  and  _383
REMARK  161  A    between atoms: _382  and  _385
REMARK  162  A    between atoms: _385  and  _386
REMARK  163  A    between atoms: _386  and  _387
REMARK  164  A    between atoms: _389  and  _391
REMARK  165  A    between atoms: _391  and  _392
REMARK  166  A    between atoms: _394  and  _396
REMARK  167  A    between atoms: _396  and  _397
REMARK  168  A    between atoms: _400  and  _402
REMARK  169  A    between atoms: _402  and  _403
REMARK  170  A    between atoms: _402  and  _405
REMARK  171  A    between atoms: _405  and  _406
REMARK  172  A    between atoms: _409  and  _411
REMARK  173  A    between atoms: _411  and  _412
REMARK  174  A    between atoms: _411  and  _414
REMARK  175  A    between atoms: _414  and  _415
REMARK  176  A    between atoms: _418  and  _420
REMARK  177  A    between atoms: _420  and  _421
REMARK  178  A    between atoms: _420  and  _423
REMARK  179  A    between atoms: _423  and  _424
REMARK  180  A    between atoms: _429  and  _431
REMARK  181  A    between atoms: _431  and  _432
REMARK  182  A    between atoms: _431  and  _434
REMARK  183  A    between atoms: _434  and  _435
REMARK  184  A    between atoms: _440  and  _442
REMARK  185  A    between atoms: _442  and  _443
REMARK  186  A    between atoms: _442  and  _445
REMARK  187  A    between atoms: _445  and  _446
REMARK  188  A    between atoms: _449  and  _451
REMARK  189  A    between atoms: _451  and  _452
REMARK  190  A    between atoms: _451  and  _454
REMARK  191  A    between atoms: _454  and  _455
REMARK  192  A    between atoms: _458  and  _460
REMARK  193  A    between atoms: _460  and  _461
REMARK  194  A    between atoms: _460  and  _463
REMARK  195  A    between atoms: _463  and  _464
REMARK  196  A    between atoms: _470  and  _471
REMARK  197  A    between atoms: _476  and  _478
REMARK  198  A    between atoms: _478  and  _479
REMARK  199  A    between atoms: _478  and  _481
REMARK  200  A    between atoms: _481  and  _482
REMARK  201  A    between atoms: _484  and  _486
REMARK  202  A    between atoms: _486  and  _487
REMARK  203  A    between atoms: _486  and  _489
REMARK  204  A    between atoms: _489  and  _490
REMARK  205  A    between atoms: _495  and  _497
REMARK  206  A    between atoms: _497  and  _498
REMARK  207  A    between atoms: _497  and  _500
REMARK  208  A    between atoms: _500  and  _501
REMARK  209  A    between atoms: _504  and  _506
REMARK  210  A    between atoms: _506  and  _507
REMARK  211  A    between atoms: _510  and  _512
REMARK  212  A    between atoms: _512  and  _513
REMARK  213  A    between atoms: _512  and  _515
REMARK  214  A    between atoms: _518  and  _520
REMARK  215  A    between atoms: _520  and  _521
REMARK  216  A    between atoms: _520  and  _523
REMARK  217  A    between atoms: _523  and  _524
REMARK  218  A    between atoms: _529  and  _531
REMARK  219  A    between atoms: _531  and  _532
REMARK  220  A    between atoms: _531  and  _534
REMARK  221  A    between atoms: _534  and  _535
REMARK  222  A    between atoms: _535  and  _536
REMARK  223  A    between atoms: _536  and  _537
REMARK  224  A    between atoms: _537  and  _538
REMARK  225  A    between atoms: _542  and  _544
REMARK  226  A    between atoms: _544  and  _545
REMARK  227  A    between atoms: _544  and  _547
REMARK  228  A    between atoms: _547  and  _548
REMARK  229  A    between atoms: _551  and  _553
REMARK  230  A    between atoms: _553  and  _554
REMARK  231  A    between atoms: _553  and  _556
REMARK  232  A    between atoms: _556  and  _557
REMARK  233  A    between atoms: _560  and  _562
REMARK  234  A    between atoms: _562  and  _563
REMARK  235  A    between atoms: _562  and  _565
REMARK  236  A    between atoms: _565  and  _566
REMARK  237  A    between atoms: _569  and  _571
REMARK  238  A    between atoms: _571  and  _572
REMARK  239  A    between atoms: _571  and  _574
REMARK  240  A    between atoms: _574  and  _575
REMARK  241  A    between atoms: _581  and  _583
REMARK  242  A    between atoms: _583  and  _584
REMARK  243  A    between atoms: _586  and  _588
REMARK  244  A    between atoms: _588  and  _589
REMARK  245  A    between atoms: _588  and  _591
REMARK  246  A    between atoms: _591  and  _592
REMARK  247  A    between atoms: _595  and  _597
REMARK  248  A    between atoms: _597  and  _598
REMARK  249  A    between atoms: _601  and  _603
REMARK  250  A    between atoms: _603  and  _604
REMARK  251  A    between atoms: _603  and  _606
REMARK  252  A    between atoms: _606  and  _607
REMARK  253  A    between atoms: _607  and  _608
REMARK  254  A    between atoms: _608  and  _609
REMARK  255  A    between atoms: _618  and  _620
REMARK  256  A    between atoms: _620  and  _621
REMARK  257  A    between atoms: _620  and  _623
REMARK  258  A    between atoms: _623  and  _624
REMARK  259  A    between atoms: _629  and  _630
REMARK                            x       y       z     vdW  Elec       q    Type
REMARK                         _______ _______ _______ _____ _____    ______ ____
ROOT
ATOM      1  CA  LEU A   4      -3.234  12.438  38.264  0.00  0.00    +0.149 C 
ENDROOT
BRANCH   1   2
ATOM      2  C   LEU A   4      -3.448  11.319  37.268  0.00  0.00    +0.241 C 
ATOM      3  N   ALA A   5      -2.380  10.540  36.984  0.00  0.00    -0.297 N 
ATOM      4  H   ALA A   5      -1.487  10.726  37.483  0.00  0.00    +0.150 HD
ATOM      5  O   LEU A   4      -4.562  11.166  36.764  0.00  0.00    -0.273 OA
BRANCH   3   6
ATOM      6  CA  ALA A   5      -2.417   9.446  36.007  0.00  0.00    +0.149 C 
ATOM      7  CB  ALA A   5      -1.058   9.283  35.340  0.00  0.00    +0.031 C 
BRANCH   6   8
ATOM      8  C   ALA A   5      -2.855   8.163  36.658  0.00  0.00    +0.241 C 
ATOM      9  O   ALA A   5      -2.206   7.671  37.573  0.00  0.00    -0.273 OA
ATOM     10  N   VAL A   6      -3.975   7.623  36.201  0.00  0.00    -0.297 N 
ATOM     11  H   VAL A   6      -4.443   8.063  35.383  0.00  0.00    +0.150 HD
BRANCH  10  12
ATOM     12  CA  VAL A   6      -4.581   6.434  36.798  0.00  0.00    +0.149 C 
BRANCH  12  13
ATOM     13  C   VAL A   6      -4.701   5.305  35.786  0.00  0.00    +0.241 C 
ATOM     14  N   ASN A   7      -4.359   4.071  36.194  0.00  0.00    -0.298 N 
ATOM     15  H   ASN A   7      -3.973   3.956  37.153  0.00  0.00    +0.150 HD
ATOM     16  O   VAL A   6      -5.111   5.549  34.662  0.00  0.00    -0.273 OA
BRANCH  14  17
ATOM     17  CA  ASN A   7      -4.504   2.876  35.351  0.00  0.00    +0.146 C 
BRANCH  17  18
ATOM     18  C   ASN A   7      -5.843   2.143  35.639  0.00  0.00    +0.227 C 
ATOM     19  O   ASN A   7      -6.609   2.571  36.507  0.00  0.00    -0.286 OA
ENDBRANCH  17  18
BRANCH  17  20
ATOM     20  CB  ASN A   7      -3.280   1.940  35.472  0.00  0.00    +0.112 C 
BRANCH  20  21
ATOM     21  CG  ASN A   7      -3.167   1.150  36.763  0.00  0.00    +0.222 C 
ATOM     22  OD1 ASN A   7      -4.058   1.114  37.603  0.00  0.00    -0.275 OA
ATOM     23  ND2 ASN A   7      -2.050   0.502  36.957  0.00  0.00    -0.329 N 
ATOM     24 HD21 ASN A   7      -1.913  -0.049  37.829  0.00  0.00    +0.145 HD
ATOM     25 HD22 ASN A   7      -1.297   0.537  36.240  0.00  0.00    +0.145 HD
ENDBRANCH  20  21
ENDBRANCH  17  20
ENDBRANCH  14  17
ENDBRANCH  12  13
BRANCH  12  26
ATOM     26  CB  VAL A   6      -5.959   6.793  37.454  0.00  0.00    +0.027 C 
ATOM     27  CG2 VAL A   6      -5.848   8.022  38.360  0.00  0.00    +0.002 C 
ATOM     28  CG1 VAL A   6      -6.542   5.617  38.233  0.00  0.00    +0.002 C 
ENDBRANCH  12  26
ENDBRANCH  10  12
ENDBRANCH   6   8
ENDBRANCH   3   6
ENDBRANCH   1   2
BRANCH   1  31
ATOM     29  C   ASN A   3      -2.271  14.586  37.520  0.00  0.00    +0.241 C 
ATOM     30  O   ASN A   3      -1.204  14.409  38.108  0.00  0.00    -0.273 OA
ATOM     31  N   LEU A   4      -3.286  13.718  37.560  0.00  0.00    -0.297 N 
ATOM     32  H   LEU A   4      -4.164  13.968  37.061  0.00  0.00    +0.150 HD
BRANCH  29  33
ATOM     33  CA  ASN A   3      -2.485  15.855  36.720  0.00  0.00    +0.158 C 
BRANCH  33  35
ATOM     34  C   SER A   2      -4.498  15.811  35.228  0.00  0.00    +0.243 C 
ATOM     35  N   ASN A   3      -3.908  16.127  36.412  0.00  0.00    -0.297 N 
ATOM     36  H   ASN A   3      -4.489  16.586  37.143  0.00  0.00    +0.150 HD
ATOM     37  O   SER A   2      -3.904  15.230  34.319  0.00  0.00    -0.273 OA
BRANCH  34  38
ATOM     38  CA  SER A   2      -6.005  16.093  35.083  0.00  0.00    +0.178 C 
BRANCH  38  41
ATOM     39  C   PRO A   1      -6.774  15.257  37.255  0.00  0.00    +0.239 C 
ATOM     40  O   PRO A   1      -6.348  14.128  37.004  0.00  0.00    -0.274 OA
ATOM     41  N   SER A   2      -6.670  16.276  36.379  0.00  0.00    -0.295 N 
ATOM     42  H   SER A   2      -7.067  17.205  36.625  0.00  0.00    +0.150 HD
BRANCH  39  47
ATOM     43  N   PRO A   1      -7.176  16.879  39.204  0.00  0.00    -0.210 NA
ATOM     44  CD  PRO A   1      -8.456  17.534  39.558  0.00  0.00    +0.089 C 
ATOM     45  CG  PRO A   1      -9.416  16.386  39.650  0.00  0.00    +0.021 C 
ATOM     46  CB  PRO A   1      -8.942  15.424  38.595  0.00  0.00    +0.028 C 
ATOM     47  CA  PRO A   1      -7.414  15.535  38.617  0.00  0.00    +0.149 C 
ENDBRANCH  39  47
ENDBRANCH  38  41
BRANCH  38  48
ATOM     48  CB  SER A   2      -6.272  17.262  34.135  0.00  0.00    +0.166 C 
BRANCH  48  49
ATOM     49  OG  SER A   2      -5.838  18.496  34.673  0.00  0.00    -0.380 OA
ATOM     50  H   SER A   2      -6.317  18.672  35.521  0.00  0.00    +0.211 HD
ENDBRANCH  48  49
ENDBRANCH  38  48
ENDBRANCH  34  38
ENDBRANCH  33  35
BRANCH  33  51
ATOM     51  CB  ASN A   3      -1.814  17.060  37.397  0.00  0.00    +0.114 C 
BRANCH  51  52
ATOM     52  CG  ASN A   3      -1.402  18.132  36.431  0.00  0.00    +0.222 C 
ATOM     53  OD1 ASN A   3      -1.169  19.278  36.819  0.00  0.00    -0.275 OA
ATOM     54  ND2 ASN A   3      -1.309  17.790  35.151  0.00  0.00    -0.329 N 
ATOM     55 HD21 ASN A   3      -1.513  16.813  34.858  0.00  0.00    +0.145 HD
ATOM     56 HD22 ASN A   3      -1.032  18.499  34.442  0.00  0.00    +0.145 HD
ENDBRANCH  51  52
ENDBRANCH  33  51
ENDBRANCH  29  33
ENDBRANCH   1  31
BRANCH   1  57
ATOM     57  CB  LEU A   4      -4.288  12.375  39.390  0.00  0.00    +0.029 C 
BRANCH  57  58
ATOM     58  CG  LEU A   4      -4.089  13.367  40.518  0.00  0.00    +0.002 C 
ATOM     59  CD2 LEU A   4      -5.235  13.318  41.474  0.00  0.00    +0.000 C 
ATOM     60  CD1 LEU A   4      -2.750  13.144  41.215  0.00  0.00    +0.000 C 
ENDBRANCH  57  58
ENDBRANCH   1  57
TORSDOF 22
REMARK  Name = ../refined-set-2016/2yix/2yix_pocket.pdb
REMARK  259 active torsions:
REMARK  status: ('A' for Active; 'I' for Inactive)
REMARK    1  A    between atoms: _1  and  _3
REMARK    2  A    between atoms: _3  and  _4
REMARK    3  A    between atoms: _3  and  _6
REMARK    4  A    between atoms: _9  and  _11
REMARK    5  A    between atoms: _11  and  _12
REMARK    6  A    between atoms: _14  and  _16
REMARK    7  A    between atoms: _16  and  _17
REMARK    8  A    between atoms: _16  and  _19
REMARK    9  A    between atoms: _19  and  _20
REMARK   10  A    between atoms: _22  and  _24
REMARK   11  A    between atoms: _24  and  _25
REMARK   12  A    between atoms: _28  and  _30
REMARK   13  A    between atoms: _30  and  _31
REMARK   14  A    between atoms: _30  and  _33
REMARK   15  A    between atoms: _33  and  _34
REMARK   16  A    between atoms: _39  and  _40
REMARK   17  A    between atoms: _42  and  _44
REMARK   18  A    between atoms: _44  and  _45
REMARK   19  A    between atoms: _47  and  _49
REMARK   20  A    between atoms: _49  and  _50
REMARK   21  A    between atoms: _49  and  _52
REMARK   22  A    between atoms: _52  and  _53
REMARK   23  A    between atoms: _55  and  _57
REMARK   24  A    between atoms: _57  and  _58
REMARK   25  A    between atoms: _57  and  _60
REMARK   26  A    between atoms: _63  and  _65
REMARK   27  A    between atoms: _65  and  _66
REMARK   28  A    between atoms: _65  and  _68
REMARK   29  A    between atoms: _70  and  _72
REMARK   30  A    between atoms: _72  and  _73
REMARK   31  A    between atoms: _76  and  _78
REMARK   32  A    between atoms: _78  and  _79
REMARK   33  A    between atoms: _78  and  _81
REMARK   34  A    between atoms: _81  and  _82
REMARK   35  A    between atoms: _82  and  _83
REMARK   36  A    between atoms: _83  and  _84
REMARK   37  A    between atoms: _93  and  _95
REMARK   38  A    between atoms: _95  and  _96
REMARK   39  A    between atoms: _95  and  _98
REMARK   40  A    between atoms: _101  and  _103
REMARK   41  A    between atoms: _103  and  _104
REMARK   42  A    between atoms: _107  and  _109
REMARK   43  A    between atoms: _109  and  _110
REMARK   44  A    between atoms: _109  and  _112
REMARK   45  A    between atoms: _115  and  _117
REMARK   46  A    between atoms: _117  and  _118
REMARK   47  A    between atoms: _117  and  _120
REMARK   48  A    between atoms: _120  and  _121
REMARK   49  A    between atoms: _121  and  _122
REMARK   50  A    between atoms: _122  and  _123
REMARK   51  A    between atoms: _123  and  _124
REMARK   52  A    between atoms: _128  and  _130
REMARK   53  A    between atoms: _130  and  _131
REMARK   54  A    between atoms: _130  and  _133
REMARK   55  A    between atoms: _133  and  _134
REMARK   56  A    between atoms: _134  and  _135
REMARK   57  A    between atoms: _135  and  _136
REMARK   58  A    between atoms: _136  and  _137
REMARK   59  A    between atoms: _141  and  _143
REMARK   60  A    between atoms: _143  and  _144
REMARK   61  A    between atoms: _143  and  _146
REMARK   62  A    between atoms: _146  and  _147
REMARK   63  A    between atoms: _150  and  _152
REMARK   64  A    between atoms: _152  and  _153
REMARK   65  A    between atoms: _152  and  _155
REMARK   66  A    between atoms: _155  and  _156
REMARK   67  A    between atoms: _156  and  _157
REMARK   68  A    between atoms: _157  and  _158
REMARK   69  A    between atoms: _167  and  _169
REMARK   70  A    between atoms: _169  and  _170
REMARK   71  A    between atoms: _169  and  _172
REMARK   72  A    between atoms: _172  and  _173
REMARK   73  A    between atoms: _173  and  _174
REMARK   74  A    between atoms: _174  and  _175
REMARK   75  A    between atoms: _184  and  _186
REMARK   76  A    between atoms: _186  and  _187
REMARK   77  A    between atoms: _186  and  _189
REMARK   78  A    between atoms: _189  and  _190
REMARK   79  A    between atoms: _190  and  _191
REMARK   80  A    between atoms: _194  and  _196
REMARK   81  A    between atoms: _196  and  _197
REMARK   82  A    between atoms: _196  and  _199
REMARK   83  A    between atoms: _199  and  _200
REMARK   84  A    between atoms: _203  and  _205
REMARK   85  A    between atoms: _205  and  _206
REMARK   86  A    between atoms: _205  and  _208
REMARK   87  A    between atoms: _208  and  _209
REMARK   88  A    between atoms: _209  and  _210
REMARK   89  A    between atoms: _210  and  _211
REMARK   90  A    between atoms: _220  and  _222
REMARK   91  A    between atoms: _222  and  _223
REMARK   92  A    between atoms: _222  and  _225
REMARK   93  A    between atoms: _225  and  _226
REMARK   94  A    between atoms: _229  and  _231
REMARK   95  A    between atoms: _231  and  _232
REMARK   96  A    between atoms: _231  and  _234
REMARK   97  A    between atoms: _234  and  _235
REMARK   98  A    between atoms: _238  and  _240
REMARK   99  A    between atoms: _240  and  _241
REMARK  100  A    between atoms: _240  and  _243
REMARK  101  A    between atoms: _243  and  _244
REMARK  102  A    between atoms: _244  and  _245
REMARK  103  A    between atoms: _245  and  _246
REMARK  104  A    between atoms: _246  and  _247
REMARK  105  A    between atoms: _251  and  _253
REMARK  106  A    between atoms: _253  and  _254
REMARK  107  A    between atoms: _253  and  _256
REMARK  108  A    between atoms: _256  and  _257
REMARK  109  A    between atoms: _262  and  _264
REMARK  110  A    between atoms: _264  and  _265
REMARK  111  A    between atoms: _264  and  _267
REMARK  112  A    between atoms: _267  and  _268
REMARK  113  A    between atoms: _268  and  _269
REMARK  114  A    between atoms: _271  and  _273
REMARK  115  A    between atoms: _273  and  _274
REMARK  116  A    between atoms: _273  and  _276
REMARK  117  A    between atoms: _279  and  _281
REMARK  118  A    between atoms: _281  and  _282
REMARK  119  A    between atoms: _281  and  _284
REMARK  120  A    between atoms: _284  and  _285
REMARK  121  A    between atoms: _288  and  _290
REMARK  122  A    between atoms: _290  and  _291
REMARK  123  A    between atoms: _293  and  _295
REMARK  124  A    between atoms: _295  and  _296
REMARK  125  A    between atoms: _295  and  _298
REMARK  126  A    between atoms: _298  and  _299
REMARK  127  A    between atoms: _302  and  _304
REMARK  128  A    between atoms: _304  and  _305
REMARK  129  A    between atoms: _304  and  _307
REMARK  130  A    between atoms: _307  and  _308
REMARK  131  A    between atoms: _311  and  _313
REMARK  132  A    between atoms: _313  and  _314
REMARK  133  A    between atoms: _313  and  _316
REMARK  134  A    between atoms: _316  and  _317
REMARK  135  A    between atoms: _320  and  _322
REMARK  136  A    between atoms: _322  and  _323
REMARK  137  A    between atoms: _322  and  _325
REMARK  138  A    between atoms: _325  and  _326
REMARK  139  A    between atoms: _331  and  _332
REMARK  140  A    between atoms: _334  and  _336
REMARK  141  A    between atoms: _336  and  _337
REMARK  142  A    between atoms: _336  and  _339
REMARK  143  A    between atoms: _339  and  _340
REMARK  144  A    between atoms: _343  and  _345
REMARK  145  A    between atoms: _345  and  _346
REMARK  146  A    between atoms: _345  and  _348
REMARK  147  A    between atoms: _351  and  _353
REMARK  148  A    between atoms: _353  and  _354
REMARK  149  A    between atoms: _353  and  _356
REMARK  150  A    between atoms: _356  and  _357
REMARK  151  A    between atoms: _360  and  _362
REMARK  152  A    between atoms: _362  and  _363
REMARK  153  A    between atoms: _362  and  _365
REMARK  154  A    between atoms: _365  and  _366
REMARK  155  A    between atoms: _371  and  _373
REMARK  156  A    between atoms: _373  and  _374
REMARK  157  A    between atoms: _373  and  _376
REMARK  158  A    between atoms: _376  and  _377
REMARK  159  A    between atoms: _380  and  _382
REMARK  160  A    between atoms: _382  and  _383
REMARK  161  A    between atoms: _382  and  _385
REMARK  162  A    between atoms: _385  and  _386
REMARK  163  A    between atoms: _386  and  _387
REMARK  164  A    between atoms: _389  and  _391
REMARK  165  A    between atoms: _391  and  _392
REMARK  166  A    between atoms: _394  and  _396
REMARK  167  A    between atoms: _396  and  _397
REMARK  168  A    between atoms: _400  and  _402
REMARK  169  A    between atoms: _402  and  _403
REMARK  170  A    between atoms: _402  and  _405
REMARK  171  A    between atoms: _405  and  _406
REMARK  172  A    between atoms: _409  and  _411
REMARK  173  A    between atoms: _411  and  _412
REMARK  174  A    between atoms: _411  and  _414
REMARK  175  A    between atoms: _414  and  _415
REMARK  176  A    between atoms: _418  and  _420
REMARK  177  A    between atoms: _420  and  _421
REMARK  178  A    between atoms: _420  and  _423
REMARK  179  A    between atoms: _423  and  _424
REMARK  180  A    between atoms: _429  and  _431
REMARK  181  A    between atoms: _431  and  _432
REMARK  182  A    between atoms: _431  and  _434
REMARK  183  A    between atoms: _434  and  _435
REMARK  184  A    between atoms: _440  and  _442
REMARK  185  A    between atoms: _442  and  _443
REMARK  186  A    between atoms: _442  and  _445
REMARK  187  A    between atoms: _445  and  _446
REMARK  188  A    between atoms: _449  and  _451
REMARK  189  A    between atoms: _451  and  _452
REMARK  190  A    between atoms: _451  and  _454
REMARK  191  A    between atoms: _454  and  _455
REMARK  192  A    between atoms: _458  and  _460
REMARK  193  A    between atoms: _460  and  _461
REMARK  194  A    between atoms: _460  and  _463
REMARK  195  A    between atoms: _463  and  _464
REMARK  196  A    between atoms: _470  and  _471
REMARK  197  A    between atoms: _476  and  _478
REMARK  198  A    between atoms: _478  and  _479
REMARK  199  A    between atoms: _478  and  _481
REMARK  200  A    between atoms: _481  and  _482
REMARK  201  A    between atoms: _484  and  _486
REMARK  202  A    between atoms: _486  and  _487
REMARK  203  A    between atoms: _486  and  _489
REMARK  204  A    between atoms: _489  and  _490
REMARK  205  A    between atoms: _495  and  _497
REMARK  206  A    between atoms: _497  and  _498
REMARK  207  A    between atoms: _497  and  _500
REMARK  208  A    between atoms: _500  and  _501
REMARK  209  A    between atoms: _504  and  _506
REMARK  210  A    between atoms: _506  and  _507
REMARK  211  A    between atoms: _510  and  _512
REMARK  212  A    between atoms: _512  and  _513
REMARK  213  A    between atoms: _512  and  _515
REMARK  214  A    between atoms: _518  and  _520
REMARK  215  A    between atoms: _520  and  _521
REMARK  216  A    between atoms: _520  and  _523
REMARK  217  A    between atoms: _523  and  _524
REMARK  218  A    between atoms: _529  and  _531
REMARK  219  A    between atoms: _531  and  _532
REMARK  220  A    between atoms: _531  and  _534
REMARK  221  A    between atoms: _534  and  _535
REMARK  222  A    between atoms: _535  and  _536
REMARK  223  A    between atoms: _536  and  _537
REMARK  224  A    between atoms: _537  and  _538
REMARK  225  A    between atoms: _542  and  _544
REMARK  226  A    between atoms: _544  and  _545
REMARK  227  A    between atoms: _544  and  _547
REMARK  228  A    between atoms: _547  and  _548
REMARK  229  A    between atoms: _551  and  _553
REMARK  230  A    between atoms: _553  and  _554
REMARK  231  A    between atoms: _553  and  _556
REMARK  232  A    between atoms: _556  and  _557
REMARK  233  A    between atoms: _560  and  _562
REMARK  234  A    between atoms: _562  and  _563
REMARK  235  A    between atoms: _562  and  _565
REMARK  236  A    between atoms: _565  and  _566
REMARK  237  A    between atoms: _569  and  _571
REMARK  238  A    between atoms: _571  and  _572
REMARK  239  A    between atoms: _571  and  _574
REMARK  240  A    between atoms: _574  and  _575
REMARK  241  A    between atoms: _581  and  _583
REMARK  242  A    between atoms: _583  and  _584
REMARK  243  A    between atoms: _586  and  _588
REMARK  244  A    between atoms: _588  and  _589
REMARK  245  A    between atoms: _588  and  _591
REMARK  246  A    between atoms: _591  and  _592
REMARK  247  A    between atoms: _595  and  _597
REMARK  248  A    between atoms: _597  and  _598
REMARK  249  A    between atoms: _601  and  _603
REMARK  250  A    between atoms: _603  and  _604
REMARK  251  A    between atoms: _603  and  _606
REMARK  252  A    between atoms: _606  and  _607
REMARK  253  A    between atoms: _607  and  _608
REMARK  254  A    between atoms: _608  and  _609
REMARK  255  A    between atoms: _618  and  _620
REMARK  256  A    between atoms: _620  and  _621
REMARK  257  A    between atoms: _620  and  _623
REMARK  258  A    between atoms: _623  and  _624
REMARK  259  A    between atoms: _629  and  _630
REMARK                            x       y       z     vdW  Elec       q    Type
REMARK                         _______ _______ _______ _____ _____    ______ ____
ROOT
ATOM      1  CA  PHE A   5       4.987  18.619  40.039  0.00  0.00    +0.153 C 
ENDROOT
BRANCH   1   2
ATOM      2  C   PHE A   5       6.229  19.500  39.770  0.00  0.00    +0.241 C 
ATOM      3  N   GLY A   6       6.410  20.547  40.566  0.00  0.00    -0.295 N 
ATOM      4  H   GLY A   6       5.676  20.746  41.276  0.00  0.00    +0.150 HD
ATOM      5  O   PHE A   5       6.971  19.228  38.833  0.00  0.00    -0.273 OA
BRANCH   3   6
ATOM      6  CA  GLY A   6       7.564  21.438  40.517  0.00  0.00    +0.176 C 
BRANCH   6   7
ATOM      7  C   GLY A   6       7.887  22.237  39.262  0.00  0.00    +0.243 C 
ATOM      8  O   GLY A   6       8.989  22.772  39.165  0.00  0.00    -0.273 OA
ATOM      9  N   LEU A   7       6.957  22.374  38.321  0.00  0.00    -0.297 N 
ATOM     10  H   LEU A   7       6.022  21.942  38.467  0.00  0.00    +0.150 HD
BRANCH   9  11
ATOM     11  CA  LEU A   7       7.214  23.120  37.078  0.00  0.00    +0.149 C 
BRANCH  11  12
ATOM     12  C   LEU A   7       6.577  24.509  37.063  0.00  0.00    +0.241 C 
ATOM     13  O   LEU A   7       5.691  24.788  37.878  0.00  0.00    -0.273 OA
ATOM     14  N   ALA A   8       7.037  25.373  36.119  0.00  0.00    -0.297 N 
ATOM     15  H   ALA A   8       7.800  25.029  35.502  0.00  0.00    +0.150 HD
BRANCH  14  16
ATOM     16  CA  ALA A   8       6.563  26.746  35.883  0.00  0.00    +0.149 C 
ATOM     17  CB  ALA A   8       7.727  27.624  35.422  0.00  0.00    +0.031 C 
BRANCH  16  18
ATOM     18  C   ALA A   8       5.451  26.766  34.824  0.00  0.00    +0.241 C 
ATOM     19  O   ALA A   8       4.665  27.705  34.747  0.00  0.00    -0.273 OA
ATOM     20  N   ARG A   9       5.430  25.732  33.996  0.00  0.00    -0.298 N 
ATOM     21  H   ARG A   9       6.189  25.036  34.143  0.00  0.00    +0.150 HD
BRANCH  20  22
ATOM     22  CA  ARG A   9       4.507  25.417  32.908  0.00  0.00    +0.137 C 
BRANCH  22  23
ATOM     23  C   ARG A   9       3.028  25.816  33.195  0.00  0.00    +0.227 C 
ATOM     24  O   ARG A   9       2.366  26.338  32.301  0.00  0.00    -0.286 OA
ENDBRANCH  22  23
BRANCH  22  25
ATOM     25  CB  ARG A   9       4.633  23.902  32.672  0.00  0.00    +0.031 C 
BRANCH  25  26
ATOM     26  CG  ARG A   9       3.709  23.324  31.647  0.00  0.00    +0.045 C 
BRANCH  26  27
ATOM     27  CD  ARG A   9       4.417  22.239  30.919  0.00  0.00    +0.174 C 
BRANCH  27  28
ATOM     28  NE  ARG A   9       4.294  20.929  31.557  0.00  0.00    -0.265 N 
ATOM     29  HE  ARG A   9       3.397  20.685  32.023  0.00  0.00    +0.259 HD
ATOM     30  CZ  ARG A   9       5.277  20.037  31.567  0.00  0.00    +0.342 C 
ATOM     31  NH2 ARG A   9       5.084  18.835  32.096  0.00  0.00    -0.292 N 
ATOM     32 HH21 ARG A   9       4.160  18.589  32.505  0.00  0.00    +0.255 HD
ATOM     33 HH22 ARG A   9       5.857  18.139  32.102  0.00  0.00    +0.255 HD
ATOM     34  NH1 ARG A   9       6.479  20.357  31.096  0.00  0.00    -0.292 N 
ATOM     35 HH11 ARG A   9       7.246  19.654  31.106  0.00  0.00    +0.255 HD
ATOM     36 HH12 ARG A   9       6.652  21.310  30.717  0.00  0.00    +0.255 HD
ENDBRANCH  27  28
ENDBRANCH  26  27
ENDBRANCH  25  26
ENDBRANCH  22  25
ENDBRANCH  20  22
ENDBRANCH  16  18
ENDBRANCH  14  16
ENDBRANCH  11  12
BRANCH  11  37
ATOM     37  CB  LEU A   7       6.772  22.302  35.837  0.00  0.00    +0.029 C 
BRANCH  37  38
ATOM     38  CG  LEU A   7       7.340  20.881  35.730  0.00  0.00    +0.002 C 
ATOM     39  CD2 LEU A   7       8.826  20.877  35.268  0.00  0.00    +0.000 C 
ATOM     40  CD1 LEU A   7       6.472  20.017  34.844  0.00  0.00    +0.000 C 
ENDBRANCH  37  38
ENDBRANCH  11  37
ENDBRANCH   9  11
ENDBRANCH   6   7
ENDBRANCH   3   6
ENDBRANCH   1   2
BRANCH   1  42
ATOM     41  C   ASP A   4       3.818  18.690  37.849  0.00  0.00    +0.241 C 
ATOM     42  N   PHE A   5       4.539  18.036  38.762  0.00  0.00    -0.297 N 
ATOM     43  H   PHE A   5       4.802  17.050  38.559  0.00  0.00    +0.150 HD
ATOM     44  O   ASP A   4       3.417  19.854  38.004  0.00  0.00    -0.273 OA
BRANCH  41  45
ATOM     45  CA  ASP A   4       3.506  17.938  36.552  0.00  0.00    +0.160 C 
BRANCH  45  48
ATOM     46  C   LEU A   3       2.412  15.820  37.276  0.00  0.00    +0.241 C 
ATOM     47  O   LEU A   3       1.654  16.370  38.058  0.00  0.00    -0.273 OA
ATOM     48  N   ASP A   4       3.335  16.484  36.571  0.00  0.00    -0.297 N 
ATOM     49  H   ASP A   4       3.986  15.920  35.988  0.00  0.00    +0.150 HD
BRANCH  46  50
ATOM     50  CA  LEU A   3       2.253  14.331  36.995  0.00  0.00    +0.149 C 
BRANCH  50  53
ATOM     51  C   ILE A   2       2.165  12.801  38.963  0.00  0.00    +0.241 C 
ATOM     52  O   ILE A   2       3.310  12.390  38.819  0.00  0.00    -0.273 OA
ATOM     53  N   LEU A   3       1.609  13.708  38.149  0.00  0.00    -0.297 N 
ATOM     54  H   LEU A   3       0.631  13.994  38.357  0.00  0.00    +0.150 HD
BRANCH  51  55
ATOM     55  CA  ILE A   2       1.289  12.280  40.126  0.00  0.00    +0.148 C 
BRANCH  55  57
ATOM     56  C   LYS A   1       0.723   9.974  39.367  0.00  0.00    +0.238 C 
ATOM     57  N   ILE A   2       1.386  10.822  40.172  0.00  0.00    -0.297 N 
ATOM     58  H   ILE A   2       2.019  10.407  40.885  0.00  0.00    +0.150 HD
ATOM     59  O   LYS A   1      -0.111  10.342  38.535  0.00  0.00    -0.274 OA
BRANCH  56  60
ATOM     60  CA  LYS A   1       1.001   8.482  39.550  0.00  0.00    +0.145 C 
BRANCH  60  61
ATOM     61  N   LYS A   1      -0.282   7.777  39.602  0.00  0.00    -0.238 NA
ATOM     62  H   LYS A   1      -0.948   7.928  38.817  0.00  0.00    +0.142 HD
ENDBRANCH  60  61
BRANCH  60  63
ATOM     63  CB  LYS A   1       1.938   7.948  38.442  0.00  0.00    +0.026 C 
BRANCH  63  64
ATOM     64  CG  LYS A   1       2.544   6.603  38.781  0.00  0.00    -0.000 C 
BRANCH  64  65
ATOM     65  CD  LYS A   1       3.360   6.007  37.646  0.00  0.00    -0.024 C 
BRANCH  65  66
ATOM     66  CE  LYS A   1       3.616   4.517  37.819  0.00  0.00    -0.086 C 
BRANCH  66  67
ATOM     67  NZ  LYS A   1       4.393   4.214  39.051  0.00  0.00    +0.380 N 
ATOM     68  HZ1 LYS A   1       3.866   4.549  39.883  0.00  0.00    -0.089 HD
ATOM     69  HZ2 LYS A   1       4.541   3.187  39.123  0.00  0.00    -0.089 HD
ATOM     70  HZ3 LYS A   1       5.314   4.695  39.006  0.00  0.00    -0.089 HD
ENDBRANCH  66  67
ENDBRANCH  65  66
ENDBRANCH  64  65
ENDBRANCH  63  64
ENDBRANCH  60  63
ENDBRANCH  56  60
ENDBRANCH  55  57
BRANCH  55  71
ATOM     71  CB  ILE A   2       1.677  12.893  41.524  0.00  0.00    +0.027 C 
ATOM     72  CG2 ILE A   2       1.724  14.425  41.493  0.00  0.00    +0.002 C 
BRANCH  71  73
ATOM     73  CG1 ILE A   2       0.687  12.418  42.621  0.00  0.00    +0.002 C 
ATOM     74  CD1 ILE A   2       1.176  12.455  44.045  0.00  0.00    +0.000 C 
ENDBRANCH  71  73
ENDBRANCH  55  71
ENDBRANCH  51  55
ENDBRANCH  50  53
BRANCH  50  75
ATOM     75  CB  LEU A   3       1.259  14.244  35.813  0.00  0.00    +0.029 C 
BRANCH  75  76
ATOM     76  CG  LEU A   3       1.274  13.149  34.748  0.00  0.00    +0.002 C 
ATOM     77  CD2 LEU A   3       1.794  11.806  35.255  0.00  0.00    +0.000 C 
ATOM     78  CD1 LEU A   3      -0.117  13.008  34.164  0.00  0.00    +0.000 C 
ENDBRANCH  75  76
ENDBRANCH  50  75
ENDBRANCH  46  50
ENDBRANCH  45  48
BRANCH  45  79
ATOM     79  CB  ASP A   4       2.339  18.580  35.782  0.00  0.00    +0.143 C 
BRANCH  79  80
ATOM     80  CG  ASP A   4       2.517  18.569  34.290  0.00  0.00    +0.367 C 
ATOM     81  OD2 ASP A   4       3.116  17.601  33.774  0.00  0.00    -0.246 OA
ATOM     82  OD1 ASP A   4       2.048  19.531  33.630  0.00  0.00    -0.246 OA
ENDBRANCH  79  80
ENDBRANCH  45  79
ENDBRANCH  41  45
ENDBRANCH   1  42
BRANCH   1  83
ATOM     83  CB  PHE A   5       5.317  17.501  41.073  0.00  0.00    +0.055 C 
BRANCH  83  84
ATOM     84  CG  PHE A   5       6.140  16.382  40.466  0.00  0.00    -0.020 A 
ATOM     85  CD2 PHE A   5       7.526  16.498  40.345  0.00  0.00    -0.004 A 
ATOM     86  CE2 PHE A   5       8.266  15.535  39.669  0.00  0.00    -0.000 A 
ATOM     87  CZ  PHE A   5       7.637  14.429  39.138  0.00  0.00    -0.000 A 
ATOM     88  CE1 PHE A   5       6.274  14.278  39.270  0.00  0.00    -0.000 A 
ATOM     89  CD1 PHE A   5       5.525  15.249  39.947  0.00  0.00    -0.004 A 
ENDBRANCH  83  84
ENDBRANCH   1  83
TORSDOF 37
REMARK  Name = ../refined-set-2016/2yix/2yix_pocket.pdb
REMARK  259 active torsions:
REMARK  status: ('A' for Active; 'I' for Inactive)
REMARK    1  A    between atoms: _1  and  _3
REMARK    2  A    between atoms: _3  and  _4
REMARK    3  A    between atoms: _3  and  _6
REMARK    4  A    between atoms: _9  and  _11
REMARK    5  A    between atoms: _11  and  _12
REMARK    6  A    between atoms: _14  and  _16
REMARK    7  A    between atoms: _16  and  _17
REMARK    8  A    between atoms: _16  and  _19
REMARK    9  A    between atoms: _19  and  _20
REMARK   10  A    between atoms: _22  and  _24
REMARK   11  A    between atoms: _24  and  _25
REMARK   12  A    between atoms: _28  and  _30
REMARK   13  A    between atoms: _30  and  _31
REMARK   14  A    between atoms: _30  and  _33
REMARK   15  A    between atoms: _33  and  _34
REMARK   16  A    between atoms: _39  and  _40
REMARK   17  A    between atoms: _42  and  _44
REMARK   18  A    between atoms: _44  and  _45
REMARK   19  A    between atoms: _47  and  _49
REMARK   20  A    between atoms: _49  and  _50
REMARK   21  A    between atoms: _49  and  _52
REMARK   22  A    between atoms: _52  and  _53
REMARK   23  A    between atoms: _55  and  _57
REMARK   24  A    between atoms: _57  and  _58
REMARK   25  A    between atoms: _57  and  _60
REMARK   26  A    between atoms: _63  and  _65
REMARK   27  A    between atoms: _65  and  _66
REMARK   28  A    between atoms: _65  and  _68
REMARK   29  A    between atoms: _70  and  _72
REMARK   30  A    between atoms: _72  and  _73
REMARK   31  A    between atoms: _76  and  _78
REMARK   32  A    between atoms: _78  and  _79
REMARK   33  A    between atoms: _78  and  _81
REMARK   34  A    between atoms: _81  and  _82
REMARK   35  A    between atoms: _82  and  _83
REMARK   36  A    between atoms: _83  and  _84
REMARK   37  A    between atoms: _93  and  _95
REMARK   38  A    between atoms: _95  and  _96
REMARK   39  A    between atoms: _95  and  _98
REMARK   40  A    between atoms: _101  and  _103
REMARK   41  A    between atoms: _103  and  _104
REMARK   42  A    between atoms: _107  and  _109
REMARK   43  A    between atoms: _109  and  _110
REMARK   44  A    between atoms: _109  and  _112
REMARK   45  A    between atoms: _115  and  _117
REMARK   46  A    between atoms: _117  and  _118
REMARK   47  A    between atoms: _117  and  _120
REMARK   48  A    between atoms: _120  and  _121
REMARK   49  A    between atoms: _121  and  _122
REMARK   50  A    between atoms: _122  and  _123
REMARK   51  A    between atoms: _123  and  _124
REMARK   52  A    between atoms: _128  and  _130
REMARK   53  A    between atoms: _130  and  _131
REMARK   54  A    between atoms: _130  and  _133
REMARK   55  A    between atoms: _133  and  _134
REMARK   56  A    between atoms: _134  and  _135
REMARK   57  A    between atoms: _135  and  _136
REMARK   58  A    between atoms: _136  and  _137
REMARK   59  A    between atoms: _141  and  _143
REMARK   60  A    between atoms: _143  and  _144
REMARK   61  A    between atoms: _143  and  _146
REMARK   62  A    between atoms: _146  and  _147
REMARK   63  A    between atoms: _150  and  _152
REMARK   64  A    between atoms: _152  and  _153
REMARK   65  A    between atoms: _152  and  _155
REMARK   66  A    between atoms: _155  and  _156
REMARK   67  A    between atoms: _156  and  _157
REMARK   68  A    between atoms: _157  and  _158
REMARK   69  A    between atoms: _167  and  _169
REMARK   70  A    between atoms: _169  and  _170
REMARK   71  A    between atoms: _169  and  _172
REMARK   72  A    between atoms: _172  and  _173
REMARK   73  A    between atoms: _173  and  _174
REMARK   74  A    between atoms: _174  and  _175
REMARK   75  A    between atoms: _184  and  _186
REMARK   76  A    between atoms: _186  and  _187
REMARK   77  A    between atoms: _186  and  _189
REMARK   78  A    between atoms: _189  and  _190
REMARK   79  A    between atoms: _190  and  _191
REMARK   80  A    between atoms: _194  and  _196
REMARK   81  A    between atoms: _196  and  _197
REMARK   82  A    between atoms: _196  and  _199
REMARK   83  A    between atoms: _199  and  _200
REMARK   84  A    between atoms: _203  and  _205
REMARK   85  A    between atoms: _205  and  _206
REMARK   86  A    between atoms: _205  and  _208
REMARK   87  A    between atoms: _208  and  _209
REMARK   88  A    between atoms: _209  and  _210
REMARK   89  A    between atoms: _210  and  _211
REMARK   90  A    between atoms: _220  and  _222
REMARK   91  A    between atoms: _222  and  _223
REMARK   92  A    between atoms: _222  and  _225
REMARK   93  A    between atoms: _225  and  _226
REMARK   94  A    between atoms: _229  and  _231
REMARK   95  A    between atoms: _231  and  _232
REMARK   96  A    between atoms: _231  and  _234
REMARK   97  A    between atoms: _234  and  _235
REMARK   98  A    between atoms: _238  and  _240
REMARK   99  A    between atoms: _240  and  _241
REMARK  100  A    between atoms: _240  and  _243
REMARK  101  A    between atoms: _243  and  _244
REMARK  102  A    between atoms: _244  and  _245
REMARK  103  A    between atoms: _245  and  _246
REMARK  104  A    between atoms: _246  and  _247
REMARK  105  A    between atoms: _251  and  _253
REMARK  106  A    between atoms: _253  and  _254
REMARK  107  A    between atoms: _253  and  _256
REMARK  108  A    between atoms: _256  and  _257
REMARK  109  A    between atoms: _262  and  _264
REMARK  110  A    between atoms: _264  and  _265
REMARK  111  A    between atoms: _264  and  _267
REMARK  112  A    between atoms: _267  and  _268
REMARK  113  A    between atoms: _268  and  _269
REMARK  114  A    between atoms: _271  and  _273
REMARK  115  A    between atoms: _273  and  _274
REMARK  116  A    between atoms: _273  and  _276
REMARK  117  A    between atoms: _279  and  _281
REMARK  118  A    between atoms: _281  and  _282
REMARK  119  A    between atoms: _281  and  _284
REMARK  120  A    between atoms: _284  and  _285
REMARK  121  A    between atoms: _288  and  _290
REMARK  122  A    between atoms: _290  and  _291
REMARK  123  A    between atoms: _293  and  _295
REMARK  124  A    between atoms: _295  and  _296
REMARK  125  A    between atoms: _295  and  _298
REMARK  126  A    between atoms: _298  and  _299
REMARK  127  A    between atoms: _302  and  _304
REMARK  128  A    between atoms: _304  and  _305
REMARK  129  A    between atoms: _304  and  _307
REMARK  130  A    between atoms: _307  and  _308
REMARK  131  A    between atoms: _311  and  _313
REMARK  132  A    between atoms: _313  and  _314
REMARK  133  A    between atoms: _313  and  _316
REMARK  134  A    between atoms: _316  and  _317
REMARK  135  A    between atoms: _320  and  _322
REMARK  136  A    between atoms: _322  and  _323
REMARK  137  A    between atoms: _322  and  _325
REMARK  138  A    between atoms: _325  and  _326
REMARK  139  A    between atoms: _331  and  _332
REMARK  140  A    between atoms: _334  and  _336
REMARK  141  A    between atoms: _336  and  _337
REMARK  142  A    between atoms: _336  and  _339
REMARK  143  A    between atoms: _339  and  _340
REMARK  144  A    between atoms: _343  and  _345
REMARK  145  A    between atoms: _345  and  _346
REMARK  146  A    between atoms: _345  and  _348
REMARK  147  A    between atoms: _351  and  _353
REMARK  148  A    between atoms: _353  and  _354
REMARK  149  A    between atoms: _353  and  _356
REMARK  150  A    between atoms: _356  and  _357
REMARK  151  A    between atoms: _360  and  _362
REMARK  152  A    between atoms: _362  and  _363
REMARK  153  A    between atoms: _362  and  _365
REMARK  154  A    between atoms: _365  and  _366
REMARK  155  A    between atoms: _371  and  _373
REMARK  156  A    between atoms: _373  and  _374
REMARK  157  A    between atoms: _373  and  _376
REMARK  158  A    between atoms: _376  and  _377
REMARK  159  A    between atoms: _380  and  _382
REMARK  160  A    between atoms: _382  and  _383
REMARK  161  A    between atoms: _382  and  _385
REMARK  162  A    between atoms: _385  and  _386
REMARK  163  A    between atoms: _386  and  _387
REMARK  164  A    between atoms: _389  and  _391
REMARK  165  A    between atoms: _391  and  _392
REMARK  166  A    between atoms: _394  and  _396
REMARK  167  A    between atoms: _396  and  _397
REMARK  168  A    between atoms: _400  and  _402
REMARK  169  A    between atoms: _402  and  _403
REMARK  170  A    between atoms: _402  and  _405
REMARK  171  A    between atoms: _405  and  _406
REMARK  172  A    between atoms: _409  and  _411
REMARK  173  A    between atoms: _411  and  _412
REMARK  174  A    between atoms: _411  and  _414
REMARK  175  A    between atoms: _414  and  _415
REMARK  176  A    between atoms: _418  and  _420
REMARK  177  A    between atoms: _420  and  _421
REMARK  178  A    between atoms: _420  and  _423
REMARK  179  A    between atoms: _423  and  _424
REMARK  180  A    between atoms: _429  and  _431
REMARK  181  A    between atoms: _431  and  _432
REMARK  182  A    between atoms: _431  and  _434
REMARK  183  A    between atoms: _434  and  _435
REMARK  184  A    between atoms: _440  and  _442
REMARK  185  A    between atoms: _442  and  _443
REMARK  186  A    between atoms: _442  and  _445
REMARK  187  A    between atoms: _445  and  _446
REMARK  188  A    between atoms: _449  and  _451
REMARK  189  A    between atoms: _451  and  _452
REMARK  190  A    between atoms: _451  and  _454
REMARK  191  A    between atoms: _454  and  _455
REMARK  192  A    between atoms: _458  and  _460
REMARK  193  A    between atoms: _460  and  _461
REMARK  194  A    between atoms: _460  and  _463
REMARK  195  A    between atoms: _463  and  _464
REMARK  196  A    between atoms: _470  and  _471
REMARK  197  A    between atoms: _476  and  _478
REMARK  198  A    between atoms: _478  and  _479
REMARK  199  A    between atoms: _478  and  _481
REMARK  200  A    between atoms: _481  and  _482
REMARK  201  A    between atoms: _484  and  _486
REMARK  202  A    between atoms: _486  and  _487
REMARK  203  A    between atoms: _486  and  _489
REMARK  204  A    between atoms: _489  and  _490
REMARK  205  A    between atoms: _495  and  _497
REMARK  206  A    between atoms: _497  and  _498
REMARK  207  A    between atoms: _497  and  _500
REMARK  208  A    between atoms: _500  and  _501
REMARK  209  A    between atoms: _504  and  _506
REMARK  210  A    between atoms: _506  and  _507
REMARK  211  A    between atoms: _510  and  _512
REMARK  212  A    between atoms: _512  and  _513
REMARK  213  A    between atoms: _512  and  _515
REMARK  214  A    between atoms: _518  and  _520
REMARK  215  A    between atoms: _520  and  _521
REMARK  216  A    between atoms: _520  and  _523
REMARK  217  A    between atoms: _523  and  _524
REMARK  218  A    between atoms: _529  and  _531
REMARK  219  A    between atoms: _531  and  _532
REMARK  220  A    between atoms: _531  and  _534
REMARK  221  A    between atoms: _534  and  _535
REMARK  222  A    between atoms: _535  and  _536
REMARK  223  A    between atoms: _536  and  _537
REMARK  224  A    between atoms: _537  and  _538
REMARK  225  A    between atoms: _542  and  _544
REMARK  226  A    between atoms: _544  and  _545
REMARK  227  A    between atoms: _544  and  _547
REMARK  228  A    between atoms: _547  and  _548
REMARK  229  A    between atoms: _551  and  _553
REMARK  230  A    between atoms: _553  and  _554
REMARK  231  A    between atoms: _553  and  _556
REMARK  232  A    between atoms: _556  and  _557
REMARK  233  A    between atoms: _560  and  _562
REMARK  234  A    between atoms: _562  and  _563
REMARK  235  A    between atoms: _562  and  _565
REMARK  236  A    between atoms: _565  and  _566
REMARK  237  A    between atoms: _569  and  _571
REMARK  238  A    between atoms: _571  and  _572
REMARK  239  A    between atoms: _571  and  _574
REMARK  240  A    between atoms: _574  and  _575
REMARK  241  A    between atoms: _581  and  _583
REMARK  242  A    between atoms: _583  and  _584
REMARK  243  A    between atoms: _586  and  _588
REMARK  244  A    between atoms: _588  and  _589
REMARK  245  A    between atoms: _588  and  _591
REMARK  246  A    between atoms: _591  and  _592
REMARK  247  A    between atoms: _595  and  _597
REMARK  248  A    between atoms: _597  and  _598
REMARK  249  A    between atoms: _601  and  _603
REMARK  250  A    between atoms: _603  and  _604
REMARK  251  A    between atoms: _603  and  _606
REMARK  252  A    between atoms: _606  and  _607
REMARK  253  A    between atoms: _607  and  _608
REMARK  254  A    between atoms: _608  and  _609
REMARK  255  A    between atoms: _618  and  _620
REMARK  256  A    between atoms: _620  and  _621
REMARK  257  A    between atoms: _620  and  _623
REMARK  258  A    between atoms: _623  and  _624
REMARK  259  A    between atoms: _629  and  _630
REMARK                            x       y       z     vdW  Elec       q    Type
REMARK                         _______ _______ _______ _____ _____    ______ ____
ROOT
ATOM      1  CG  TYR A   1      15.405  18.057  44.146  0.00  0.00    -0.020 A 
ATOM      2  CD2 TYR A   1      14.634  19.215  44.111  0.00  0.00    -0.001 A 
ATOM      3  CE2 TYR A   1      14.408  19.900  42.912  0.00  0.00    +0.036 A 
ATOM      4  CZ  TYR A   1      14.957  19.423  41.733  0.00  0.00    +0.134 A 
ATOM      5  CE1 TYR A   1      15.716  18.267  41.748  0.00  0.00    +0.036 A 
ATOM      6  CD1 TYR A   1      15.936  17.594  42.951  0.00  0.00    -0.001 A 
ENDROOT
BRANCH   4   7
ATOM      7  OH  TYR A   1      14.750  20.070  40.542  0.00  0.00    -0.506 OA
ATOM      8  HH  TYR A   1      15.218  19.583  39.818  0.00  0.00    +0.292 HD
ENDBRANCH   4   7
BRANCH   1   9
ATOM      9  CB  TYR A   1      15.642  17.310  45.452  0.00  0.00    +0.051 C 
BRANCH   9  10
ATOM     10  CA  TYR A   1      17.136  17.201  45.865  0.00  0.00    +0.137 C 
BRANCH  10  11
ATOM     11  N   TYR A   1      17.309  16.589  47.182  0.00  0.00    -0.239 NA
ATOM     12  H   TYR A   1      16.777  16.991  47.980  0.00  0.00    +0.142 HD
ENDBRANCH  10  11
BRANCH  10  13
ATOM     13  C   TYR A   1      17.843  18.564  45.838  0.00  0.00    +0.224 C 
ATOM     14  O   TYR A   1      17.457  19.477  46.558  0.00  0.00    -0.287 OA
ENDBRANCH  10  13
ENDBRANCH   9  10
ENDBRANCH   1   9
TORSDOF 5
REMARK  Name = ../refined-set-2016/2yix/2yix_pocket.pdb
REMARK  259 active torsions:
REMARK  status: ('A' for Active; 'I' for Inactive)
REMARK    1  A    between atoms: _1  and  _3
REMARK    2  A    between atoms: _3  and  _4
REMARK    3  A    between atoms: _3  and  _6
REMARK    4  A    between atoms: _9  and  _11
REMARK    5  A    between atoms: _11  and  _12
REMARK    6  A    between atoms: _14  and  _16
REMARK    7  A    between atoms: _16  and  _17
REMARK    8  A    between atoms: _16  and  _19
REMARK    9  A    between atoms: _19  and  _20
REMARK   10  A    between atoms: _22  and  _24
REMARK   11  A    between atoms: _24  and  _25
REMARK   12  A    between atoms: _28  and  _30
REMARK   13  A    between atoms: _30  and  _31
REMARK   14  A    between atoms: _30  and  _33
REMARK   15  A    between atoms: _33  and  _34
REMARK   16  A    between atoms: _39  and  _40
REMARK   17  A    between atoms: _42  and  _44
REMARK   18  A    between atoms: _44  and  _45
REMARK   19  A    between atoms: _47  and  _49
REMARK   20  A    between atoms: _49  and  _50
REMARK   21  A    between atoms: _49  and  _52
REMARK   22  A    between atoms: _52  and  _53
REMARK   23  A    between atoms: _55  and  _57
REMARK   24  A    between atoms: _57  and  _58
REMARK   25  A    between atoms: _57  and  _60
REMARK   26  A    between atoms: _63  and  _65
REMARK   27  A    between atoms: _65  and  _66
REMARK   28  A    between atoms: _65  and  _68
REMARK   29  A    between atoms: _70  and  _72
REMARK   30  A    between atoms: _72  and  _73
REMARK   31  A    between atoms: _76  and  _78
REMARK   32  A    between atoms: _78  and  _79
REMARK   33  A    between atoms: _78  and  _81
REMARK   34  A    between atoms: _81  and  _82
REMARK   35  A    between atoms: _82  and  _83
REMARK   36  A    between atoms: _83  and  _84
REMARK   37  A    between atoms: _93  and  _95
REMARK   38  A    between atoms: _95  and  _96
REMARK   39  A    between atoms: _95  and  _98
REMARK   40  A    between atoms: _101  and  _103
REMARK   41  A    between atoms: _103  and  _104
REMARK   42  A    between atoms: _107  and  _109
REMARK   43  A    between atoms: _109  and  _110
REMARK   44  A    between atoms: _109  and  _112
REMARK   45  A    between atoms: _115  and  _117
REMARK   46  A    between atoms: _117  and  _118
REMARK   47  A    between atoms: _117  and  _120
REMARK   48  A    between atoms: _120  and  _121
REMARK   49  A    between atoms: _121  and  _122
REMARK   50  A    between atoms: _122  and  _123
REMARK   51  A    between atoms: _123  and  _124
REMARK   52  A    between atoms: _128  and  _130
REMARK   53  A    between atoms: _130  and  _131
REMARK   54  A    between atoms: _130  and  _133
REMARK   55  A    between atoms: _133  and  _134
REMARK   56  A    between atoms: _134  and  _135
REMARK   57  A    between atoms: _135  and  _136
REMARK   58  A    between atoms: _136  and  _137
REMARK   59  A    between atoms: _141  and  _143
REMARK   60  A    between atoms: _143  and  _144
REMARK   61  A    between atoms: _143  and  _146
REMARK   62  A    between atoms: _146  and  _147
REMARK   63  A    between atoms: _150  and  _152
REMARK   64  A    between atoms: _152  and  _153
REMARK   65  A    between atoms: _152  and  _155
REMARK   66  A    between atoms: _155  and  _156
REMARK   67  A    between atoms: _156  and  _157
REMARK   68  A    between atoms: _157  and  _158
REMARK   69  A    between atoms: _167  and  _169
REMARK   70  A    between atoms: _169  and  _170
REMARK   71  A    between atoms: _169  and  _172
REMARK   72  A    between atoms: _172  and  _173
REMARK   73  A    between atoms: _173  and  _174
REMARK   74  A    between atoms: _174  and  _175
REMARK   75  A    between atoms: _184  and  _186
REMARK   76  A    between atoms: _186  and  _187
REMARK   77  A    between atoms: _186  and  _189
REMARK   78  A    between atoms: _189  and  _190
REMARK   79  A    between atoms: _190  and  _191
REMARK   80  A    between atoms: _194  and  _196
REMARK   81  A    between atoms: _196  and  _197
REMARK   82  A    between atoms: _196  and  _199
REMARK   83  A    between atoms: _199  and  _200
REMARK   84  A    between atoms: _203  and  _205
REMARK   85  A    between atoms: _205  and  _206
REMARK   86  A    between atoms: _205  and  _208
REMARK   87  A    between atoms: _208  and  _209
REMARK   88  A    between atoms: _209  and  _210
REMARK   89  A    between atoms: _210  and  _211
REMARK   90  A    between atoms: _220  and  _222
REMARK   91  A    between atoms: _222  and  _223
REMARK   92  A    between atoms: _222  and  _225
REMARK   93  A    between atoms: _225  and  _226
REMARK   94  A    between atoms: _229  and  _231
REMARK   95  A    between atoms: _231  and  _232
REMARK   96  A    between atoms: _231  and  _234
REMARK   97  A    between atoms: _234  and  _235
REMARK   98  A    between atoms: _238  and  _240
REMARK   99  A    between atoms: _240  and  _241
REMARK  100  A    between atoms: _240  and  _243
REMARK  101  A    between atoms: _243  and  _244
REMARK  102  A    between atoms: _244  and  _245
REMARK  103  A    between atoms: _245  and  _246
REMARK  104  A    between atoms: _246  and  _247
REMARK  105  A    between atoms: _251  and  _253
REMARK  106  A    between atoms: _253  and  _254
REMARK  107  A    between atoms: _253  and  _256
REMARK  108  A    between atoms: _256  and  _257
REMARK  109  A    between atoms: _262  and  _264
REMARK  110  A    between atoms: _264  and  _265
REMARK  111  A    between atoms: _264  and  _267
REMARK  112  A    between atoms: _267  and  _268
REMARK  113  A    between atoms: _268  and  _269
REMARK  114  A    between atoms: _271  and  _273
REMARK  115  A    between atoms: _273  and  _274
REMARK  116  A    between atoms: _273  and  _276
REMARK  117  A    between atoms: _279  and  _281
REMARK  118  A    between atoms: _281  and  _282
REMARK  119  A    between atoms: _281  and  _284
REMARK  120  A    between atoms: _284  and  _285
REMARK  121  A    between atoms: _288  and  _290
REMARK  122  A    between atoms: _290  and  _291
REMARK  123  A    between atoms: _293  and  _295
REMARK  124  A    between atoms: _295  and  _296
REMARK  125  A    between atoms: _295  and  _298
REMARK  126  A    between atoms: _298  and  _299
REMARK  127  A    between atoms: _302  and  _304
REMARK  128  A    between atoms: _304  and  _305
REMARK  129  A    between atoms: _304  and  _307
REMARK  130  A    between atoms: _307  and  _308
REMARK  131  A    between atoms: _311  and  _313
REMARK  132  A    between atoms: _313  and  _314
REMARK  133  A    between atoms: _313  and  _316
REMARK  134  A    between atoms: _316  and  _317
REMARK  135  A    between atoms: _320  and  _322
REMARK  136  A    between atoms: _322  and  _323
REMARK  137  A    between atoms: _322  and  _325
REMARK  138  A    between atoms: _325  and  _326
REMARK  139  A    between atoms: _331  and  _332
REMARK  140  A    between atoms: _334  and  _336
REMARK  141  A    between atoms: _336  and  _337
REMARK  142  A    between atoms: _336  and  _339
REMARK  143  A    between atoms: _339  and  _340
REMARK  144  A    between atoms: _343  and  _345
REMARK  145  A    between atoms: _345  and  _346
REMARK  146  A    between atoms: _345  and  _348
REMARK  147  A    between atoms: _351  and  _353
REMARK  148  A    between atoms: _353  and  _354
REMARK  149  A    between atoms: _353  and  _356
REMARK  150  A    between atoms: _356  and  _357
REMARK  151  A    between atoms: _360  and  _362
REMARK  152  A    between atoms: _362  and  _363
REMARK  153  A    between atoms: _362  and  _365
REMARK  154  A    between atoms: _365  and  _366
REMARK  155  A    between atoms: _371  and  _373
REMARK  156  A    between atoms: _373  and  _374
REMARK  157  A    between atoms: _373  and  _376
REMARK  158  A    between atoms: _376  and  _377
REMARK  159  A    between atoms: _380  and  _382
REMARK  160  A    between atoms: _382  and  _383
REMARK  161  A    between atoms: _382  and  _385
REMARK  162  A    between atoms: _385  and  _386
REMARK  163  A    between atoms: _386  and  _387
REMARK  164  A    between atoms: _389  and  _391
REMARK  165  A    between atoms: _391  and  _392
REMARK  166  A    between atoms: _394  and  _396
REMARK  167  A    between atoms: _396  and  _397
REMARK  168  A    between atoms: _400  and  _402
REMARK  169  A    between atoms: _402  and  _403
REMARK  170  A    between atoms: _402  and  _405
REMARK  171  A    between atoms: _405  and  _406
REMARK  172  A    between atoms: _409  and  _411
REMARK  173  A    between atoms: _411  and  _412
REMARK  174  A    between atoms: _411  and  _414
REMARK  175  A    between atoms: _414  and  _415
REMARK  176  A    between atoms: _418  and  _420
REMARK  177  A    between atoms: _420  and  _421
REMARK  178  A    between atoms: _420  and  _423
REMARK  179  A    between atoms: _423  and  _424
REMARK  180  A    between atoms: _429  and  _431
REMARK  181  A    between atoms: _431  and  _432
REMARK  182  A    between atoms: _431  and  _434
REMARK  183  A    between atoms: _434  and  _435
REMARK  184  A    between atoms: _440  and  _442
REMARK  185  A    between atoms: _442  and  _443
REMARK  186  A    between atoms: _442  and  _445
REMARK  187  A    between atoms: _445  and  _446
REMARK  188  A    between atoms: _449  and  _451
REMARK  189  A    between atoms: _451  and  _452
REMARK  190  A    between atoms: _451  and  _454
REMARK  191  A    between atoms: _454  and  _455
REMARK  192  A    between atoms: _458  and  _460
REMARK  193  A    between atoms: _460  and  _461
REMARK  194  A    between atoms: _460  and  _463
REMARK  195  A    between atoms: _463  and  _464
REMARK  196  A    between atoms: _470  and  _471
REMARK  197  A    between atoms: _476  and  _478
REMARK  198  A    between atoms: _478  and  _479
REMARK  199  A    between atoms: _478  and  _481
REMARK  200  A    between atoms: _481  and  _482
REMARK  201  A    between atoms: _484  and  _486
REMARK  202  A    between atoms: _486  and  _487
REMARK  203  A    between atoms: _486  and  _489
REMARK  204  A    between atoms: _489  and  _490
REMARK  205  A    between atoms: _495  and  _497
REMARK  206  A    between atoms: _497  and  _498
REMARK  207  A    between atoms: _497  and  _500
REMARK  208  A    between atoms: _500  and  _501
REMARK  209  A    between atoms: _504  and  _506
REMARK  210  A    between atoms: _506  and  _507
REMARK  211  A    between atoms: _510  and  _512
REMARK  212  A    between atoms: _512  and  _513
REMARK  213  A    between atoms: _512  and  _515
REMARK  214  A    between atoms: _518  and  _520
REMARK  215  A    between atoms: _520  and  _521
REMARK  216  A    between atoms: _520  and  _523
REMARK  217  A    between atoms: _523  and  _524
REMARK  218  A    between atoms: _529  and  _531
REMARK  219  A    between atoms: _531  and  _532
REMARK  220  A    between atoms: _531  and  _534
REMARK  221  A    between atoms: _534  and  _535
REMARK  222  A    between atoms: _535  and  _536
REMARK  223  A    between atoms: _536  and  _537
REMARK  224  A    between atoms: _537  and  _538
REMARK  225  A    between atoms: _542  and  _544
REMARK  226  A    between atoms: _544  and  _545
REMARK  227  A    between atoms: _544  and  _547
REMARK  228  A    between atoms: _547  and  _548
REMARK  229  A    between atoms: _551  and  _553
REMARK  230  A    between atoms: _553  and  _554
REMARK  231  A    between atoms: _553  and  _556
REMARK  232  A    between atoms: _556  and  _557
REMARK  233  A    between atoms: _560  and  _562
REMARK  234  A    between atoms: _562  and  _563
REMARK  235  A    between atoms: _562  and  _565
REMARK  236  A    between atoms: _565  and  _566
REMARK  237  A    between atoms: _569  and  _571
REMARK  238  A    between atoms: _571  and  _572
REMARK  239  A    between atoms: _571  and  _574
REMARK  240  A    between atoms: _574  and  _575
REMARK  241  A    between atoms: _581  and  _583
REMARK  242  A    between atoms: _583  and  _584
REMARK  243  A    between atoms: _586  and  _588
REMARK  244  A    between atoms: _588  and  _589
REMARK  245  A    between atoms: _588  and  _591
REMARK  246  A    between atoms: _591  and  _592
REMARK  247  A    between atoms: _595  and  _597
REMARK  248  A    between atoms: _597  and  _598
REMARK  249  A    between atoms: _601  and  _603
REMARK  250  A    between atoms: _603  and  _604
REMARK  251  A    between atoms: _603  and  _606
REMARK  252  A    between atoms: _606  and  _607
REMARK  253  A    between atoms: _607  and  _608
REMARK  254  A    between atoms: _608  and  _609
REMARK  255  A    between atoms: _618  and  _620
REMARK  256  A    between atoms: _620  and  _621
REMARK  257  A    between atoms: _620  and  _623
REMARK  258  A    between atoms: _623  and  _624
REMARK  259  A    between atoms: _629  and  _630
REMARK                            x       y       z     vdW  Elec       q    Type
REMARK                         _______ _______ _______ _____ _____    ______ ____
ROOT
ATOM      1  O   HOH     1      -0.565  15.213  24.711  0.00  0.00    +0.000 OA
ENDROOT
TORSDOF 0
REMARK  Name = ../refined-set-2016/2yix/2yix_pocket.pdb
REMARK  259 active torsions:
REMARK  status: ('A' for Active; 'I' for Inactive)
REMARK    1  A    between atoms: _1  and  _3
REMARK    2  A    between atoms: _3  and  _4
REMARK    3  A    between atoms: _3  and  _6
REMARK    4  A    between atoms: _9  and  _11
REMARK    5  A    between atoms: _11  and  _12
REMARK    6  A    between atoms: _14  and  _16
REMARK    7  A    between atoms: _16  and  _17
REMARK    8  A    between atoms: _16  and  _19
REMARK    9  A    between atoms: _19  and  _20
REMARK   10  A    between atoms: _22  and  _24
REMARK   11  A    between atoms: _24  and  _25
REMARK   12  A    between atoms: _28  and  _30
REMARK   13  A    between atoms: _30  and  _31
REMARK   14  A    between atoms: _30  and  _33
REMARK   15  A    between atoms: _33  and  _34
REMARK   16  A    between atoms: _39  and  _40
REMARK   17  A    between atoms: _42  and  _44
REMARK   18  A    between atoms: _44  and  _45
REMARK   19  A    between atoms: _47  and  _49
REMARK   20  A    between atoms: _49  and  _50
REMARK   21  A    between atoms: _49  and  _52
REMARK   22  A    between atoms: _52  and  _53
REMARK   23  A    between atoms: _55  and  _57
REMARK   24  A    between atoms: _57  and  _58
REMARK   25  A    between atoms: _57  and  _60
REMARK   26  A    between atoms: _63  and  _65
REMARK   27  A    between atoms: _65  and  _66
REMARK   28  A    between atoms: _65  and  _68
REMARK   29  A    between atoms: _70  and  _72
REMARK   30  A    between atoms: _72  and  _73
REMARK   31  A    between atoms: _76  and  _78
REMARK   32  A    between atoms: _78  and  _79
REMARK   33  A    between atoms: _78  and  _81
REMARK   34  A    between atoms: _81  and  _82
REMARK   35  A    between atoms: _82  and  _83
REMARK   36  A    between atoms: _83  and  _84
REMARK   37  A    between atoms: _93  and  _95
REMARK   38  A    between atoms: _95  and  _96
REMARK   39  A    between atoms: _95  and  _98
REMARK   40  A    between atoms: _101  and  _103
REMARK   41  A    between atoms: _103  and  _104
REMARK   42  A    between atoms: _107  and  _109
REMARK   43  A    between atoms: _109  and  _110
REMARK   44  A    between atoms: _109  and  _112
REMARK   45  A    between atoms: _115  and  _117
REMARK   46  A    between atoms: _117  and  _118
REMARK   47  A    between atoms: _117  and  _120
REMARK   48  A    between atoms: _120  and  _121
REMARK   49  A    between atoms: _121  and  _122
REMARK   50  A    between atoms: _122  and  _123
REMARK   51  A    between atoms: _123  and  _124
REMARK   52  A    between atoms: _128  and  _130
REMARK   53  A    between atoms: _130  and  _131
REMARK   54  A    between atoms: _130  and  _133
REMARK   55  A    between atoms: _133  and  _134
REMARK   56  A    between atoms: _134  and  _135
REMARK   57  A    between atoms: _135  and  _136
REMARK   58  A    between atoms: _136  and  _137
REMARK   59  A    between atoms: _141  and  _143
REMARK   60  A    between atoms: _143  and  _144
REMARK   61  A    between atoms: _143  and  _146
REMARK   62  A    between atoms: _146  and  _147
REMARK   63  A    between atoms: _150  and  _152
REMARK   64  A    between atoms: _152  and  _153
REMARK   65  A    between atoms: _152  and  _155
REMARK   66  A    between atoms: _155  and  _156
REMARK   67  A    between atoms: _156  and  _157
REMARK   68  A    between atoms: _157  and  _158
REMARK   69  A    between atoms: _167  and  _169
REMARK   70  A    between atoms: _169  and  _170
REMARK   71  A    between atoms: _169  and  _172
REMARK   72  A    between atoms: _172  and  _173
REMARK   73  A    between atoms: _173  and  _174
REMARK   74  A    between atoms: _174  and  _175
REMARK   75  A    between atoms: _184  and  _186
REMARK   76  A    between atoms: _186  and  _187
REMARK   77  A    between atoms: _186  and  _189
REMARK   78  A    between atoms: _189  and  _190
REMARK   79  A    between atoms: _190  and  _191
REMARK   80  A    between atoms: _194  and  _196
REMARK   81  A    between atoms: _196  and  _197
REMARK   82  A    between atoms: _196  and  _199
REMARK   83  A    between atoms: _199  and  _200
REMARK   84  A    between atoms: _203  and  _205
REMARK   85  A    between atoms: _205  and  _206
REMARK   86  A    between atoms: _205  and  _208
REMARK   87  A    between atoms: _208  and  _209
REMARK   88  A    between atoms: _209  and  _210
REMARK   89  A    between atoms: _210  and  _211
REMARK   90  A    between atoms: _220  and  _222
REMARK   91  A    between atoms: _222  and  _223
REMARK   92  A    between atoms: _222  and  _225
REMARK   93  A    between atoms: _225  and  _226
REMARK   94  A    between atoms: _229  and  _231
REMARK   95  A    between atoms: _231  and  _232
REMARK   96  A    between atoms: _231  and  _234
REMARK   97  A    between atoms: _234  and  _235
REMARK   98  A    between atoms: _238  and  _240
REMARK   99  A    between atoms: _240  and  _241
REMARK  100  A    between atoms: _240  and  _243
REMARK  101  A    between atoms: _243  and  _244
REMARK  102  A    between atoms: _244  and  _245
REMARK  103  A    between atoms: _245  and  _246
REMARK  104  A    between atoms: _246  and  _247
REMARK  105  A    between atoms: _251  and  _253
REMARK  106  A    between atoms: _253  and  _254
REMARK  107  A    between atoms: _253  and  _256
REMARK  108  A    between atoms: _256  and  _257
REMARK  109  A    between atoms: _262  and  _264
REMARK  110  A    between atoms: _264  and  _265
REMARK  111  A    between atoms: _264  and  _267
REMARK  112  A    between atoms: _267  and  _268
REMARK  113  A    between atoms: _268  and  _269
REMARK  114  A    between atoms: _271  and  _273
REMARK  115  A    between atoms: _273  and  _274
REMARK  116  A    between atoms: _273  and  _276
REMARK  117  A    between atoms: _279  and  _281
REMARK  118  A    between atoms: _281  and  _282
REMARK  119  A    between atoms: _281  and  _284
REMARK  120  A    between atoms: _284  and  _285
REMARK  121  A    between atoms: _288  and  _290
REMARK  122  A    between atoms: _290  and  _291
REMARK  123  A    between atoms: _293  and  _295
REMARK  124  A    between atoms: _295  and  _296
REMARK  125  A    between atoms: _295  and  _298
REMARK  126  A    between atoms: _298  and  _299
REMARK  127  A    between atoms: _302  and  _304
REMARK  128  A    between atoms: _304  and  _305
REMARK  129  A    between atoms: _304  and  _307
REMARK  130  A    between atoms: _307  and  _308
REMARK  131  A    between atoms: _311  and  _313
REMARK  132  A    between atoms: _313  and  _314
REMARK  133  A    between atoms: _313  and  _316
REMARK  134  A    between atoms: _316  and  _317
REMARK  135  A    between atoms: _320  and  _322
REMARK  136  A    between atoms: _322  and  _323
REMARK  137  A    between atoms: _322  and  _325
REMARK  138  A    between atoms: _325  and  _326
REMARK  139  A    between atoms: _331  and  _332
REMARK  140  A    between atoms: _334  and  _336
REMARK  141  A    between atoms: _336  and  _337
REMARK  142  A    between atoms: _336  and  _339
REMARK  143  A    between atoms: _339  and  _340
REMARK  144  A    between atoms: _343  and  _345
REMARK  145  A    between atoms: _345  and  _346
REMARK  146  A    between atoms: _345  and  _348
REMARK  147  A    between atoms: _351  and  _353
REMARK  148  A    between atoms: _353  and  _354
REMARK  149  A    between atoms: _353  and  _356
REMARK  150  A    between atoms: _356  and  _357
REMARK  151  A    between atoms: _360  and  _362
REMARK  152  A    between atoms: _362  and  _363
REMARK  153  A    between atoms: _362  and  _365
REMARK  154  A    between atoms: _365  and  _366
REMARK  155  A    between atoms: _371  and  _373
REMARK  156  A    between atoms: _373  and  _374
REMARK  157  A    between atoms: _373  and  _376
REMARK  158  A    between atoms: _376  and  _377
REMARK  159  A    between atoms: _380  and  _382
REMARK  160  A    between atoms: _382  and  _383
REMARK  161  A    between atoms: _382  and  _385
REMARK  162  A    between atoms: _385  and  _386
REMARK  163  A    between atoms: _386  and  _387
REMARK  164  A    between atoms: _389  and  _391
REMARK  165  A    between atoms: _391  and  _392
REMARK  166  A    between atoms: _394  and  _396
REMARK  167  A    between atoms: _396  and  _397
REMARK  168  A    between atoms: _400  and  _402
REMARK  169  A    between atoms: _402  and  _403
REMARK  170  A    between atoms: _402  and  _405
REMARK  171  A    between atoms: _405  and  _406
REMARK  172  A    between atoms: _409  and  _411
REMARK  173  A    between atoms: _411  and  _412
REMARK  174  A    between atoms: _411  and  _414
REMARK  175  A    between atoms: _414  and  _415
REMARK  176  A    between atoms: _418  and  _420
REMARK  177  A    between atoms: _420  and  _421
REMARK  178  A    between atoms: _420  and  _423
REMARK  179  A    between atoms: _423  and  _424
REMARK  180  A    between atoms: _429  and  _431
REMARK  181  A    between atoms: _431  and  _432
REMARK  182  A    between atoms: _431  and  _434
REMARK  183  A    between atoms: _434  and  _435
REMARK  184  A    between atoms: _440  and  _442
REMARK  185  A    between atoms: _442  and  _443
REMARK  186  A    between atoms: _442  and  _445
REMARK  187  A    between atoms: _445  and  _446
REMARK  188  A    between atoms: _449  and  _451
REMARK  189  A    between atoms: _451  and  _452
REMARK  190  A    between atoms: _451  and  _454
REMARK  191  A    between atoms: _454  and  _455
REMARK  192  A    between atoms: _458  and  _460
REMARK  193  A    between atoms: _460  and  _461
REMARK  194  A    between atoms: _460  and  _463
REMARK  195  A    between atoms: _463  and  _464
REMARK  196  A    between atoms: _470  and  _471
REMARK  197  A    between atoms: _476  and  _478
REMARK  198  A    between atoms: _478  and  _479
REMARK  199  A    between atoms: _478  and  _481
REMARK  200  A    between atoms: _481  and  _482
REMARK  201  A    between atoms: _484  and  _486
REMARK  202  A    between atoms: _486  and  _487
REMARK  203  A    between atoms: _486  and  _489
REMARK  204  A    between atoms: _489  and  _490
REMARK  205  A    between atoms: _495  and  _497
REMARK  206  A    between atoms: _497  and  _498
REMARK  207  A    between atoms: _497  and  _500
REMARK  208  A    between atoms: _500  and  _501
REMARK  209  A    between atoms: _504  and  _506
REMARK  210  A    between atoms: _506  and  _507
REMARK  211  A    between atoms: _510  and  _512
REMARK  212  A    between atoms: _512  and  _513
REMARK  213  A    between atoms: _512  and  _515
REMARK  214  A    between atoms: _518  and  _520
REMARK  215  A    between atoms: _520  and  _521
REMARK  216  A    between atoms: _520  and  _523
REMARK  217  A    between atoms: _523  and  _524
REMARK  218  A    between atoms: _529  and  _531
REMARK  219  A    between atoms: _531  and  _532
REMARK  220  A    between atoms: _531  and  _534
REMARK  221  A    between atoms: _534  and  _535
REMARK  222  A    between atoms: _535  and  _536
REMARK  223  A    between atoms: _536  and  _537
REMARK  224  A    between atoms: _537  and  _538
REMARK  225  A    between atoms: _542  and  _544
REMARK  226  A    between atoms: _544  and  _545
REMARK  227  A    between atoms: _544  and  _547
REMARK  228  A    between atoms: _547  and  _548
REMARK  229  A    between atoms: _551  and  _553
REMARK  230  A    between atoms: _553  and  _554
REMARK  231  A    between atoms: _553  and  _556
REMARK  232  A    between atoms: _556  and  _557
REMARK  233  A    between atoms: _560  and  _562
REMARK  234  A    between atoms: _562  and  _563
REMARK  235  A    between atoms: _562  and  _565
REMARK  236  A    between atoms: _565  and  _566
REMARK  237  A    between atoms: _569  and  _571
REMARK  238  A    between atoms: _571  and  _572
REMARK  239  A    between atoms: _571  and  _574
REMARK  240  A    between atoms: _574  and  _575
REMARK  241  A    between atoms: _581  and  _583
REMARK  242  A    between atoms: _583  and  _584
REMARK  243  A    between atoms: _586  and  _588
REMARK  244  A    between atoms: _588  and  _589
REMARK  245  A    between atoms: _588  and  _591
REMARK  246  A    between atoms: _591  and  _592
REMARK  247  A    between atoms: _595  and  _597
REMARK  248  A    between atoms: _597  and  _598
REMARK  249  A    between atoms: _601  and  _603
REMARK  250  A    between atoms: _603  and  _604
REMARK  251  A    between atoms: _603  and  _606
REMARK  252  A    between atoms: _606  and  _607
REMARK  253  A    between atoms: _607  and  _608
REMARK  254  A    between atoms: _608  and  _609
REMARK  255  A    between atoms: _618  and  _620
REMARK  256  A    between atoms: _620  and  _621
REMARK  257  A    between atoms: _620  and  _623
REMARK  258  A    between atoms: _623  and  _624
REMARK  259  A    between atoms: _629  and  _630
REMARK                            x       y       z     vdW  Elec       q    Type
REMARK                         _______ _______ _______ _____ _____    ______ ____
ROOT
ATOM      1  O   HOH     1      -5.786   9.994  23.319  0.00  0.00    +0.000 OA
ENDROOT
TORSDOF 0
REMARK  Name = ../refined-set-2016/2yix/2yix_pocket.pdb
REMARK  259 active torsions:
REMARK  status: ('A' for Active; 'I' for Inactive)
REMARK    1  A    between atoms: _1  and  _3
REMARK    2  A    between atoms: _3  and  _4
REMARK    3  A    between atoms: _3  and  _6
REMARK    4  A    between atoms: _9  and  _11
REMARK    5  A    between atoms: _11  and  _12
REMARK    6  A    between atoms: _14  and  _16
REMARK    7  A    between atoms: _16  and  _17
REMARK    8  A    between atoms: _16  and  _19
REMARK    9  A    between atoms: _19  and  _20
REMARK   10  A    between atoms: _22  and  _24
REMARK   11  A    between atoms: _24  and  _25
REMARK   12  A    between atoms: _28  and  _30
REMARK   13  A    between atoms: _30  and  _31
REMARK   14  A    between atoms: _30  and  _33
REMARK   15  A    between atoms: _33  and  _34
REMARK   16  A    between atoms: _39  and  _40
REMARK   17  A    between atoms: _42  and  _44
REMARK   18  A    between atoms: _44  and  _45
REMARK   19  A    between atoms: _47  and  _49
REMARK   20  A    between atoms: _49  and  _50
REMARK   21  A    between atoms: _49  and  _52
REMARK   22  A    between atoms: _52  and  _53
REMARK   23  A    between atoms: _55  and  _57
REMARK   24  A    between atoms: _57  and  _58
REMARK   25  A    between atoms: _57  and  _60
REMARK   26  A    between atoms: _63  and  _65
REMARK   27  A    between atoms: _65  and  _66
REMARK   28  A    between atoms: _65  and  _68
REMARK   29  A    between atoms: _70  and  _72
REMARK   30  A    between atoms: _72  and  _73
REMARK   31  A    between atoms: _76  and  _78
REMARK   32  A    between atoms: _78  and  _79
REMARK   33  A    between atoms: _78  and  _81
REMARK   34  A    between atoms: _81  and  _82
REMARK   35  A    between atoms: _82  and  _83
REMARK   36  A    between atoms: _83  and  _84
REMARK   37  A    between atoms: _93  and  _95
REMARK   38  A    between atoms: _95  and  _96
REMARK   39  A    between atoms: _95  and  _98
REMARK   40  A    between atoms: _101  and  _103
REMARK   41  A    between atoms: _103  and  _104
REMARK   42  A    between atoms: _107  and  _109
REMARK   43  A    between atoms: _109  and  _110
REMARK   44  A    between atoms: _109  and  _112
REMARK   45  A    between atoms: _115  and  _117
REMARK   46  A    between atoms: _117  and  _118
REMARK   47  A    between atoms: _117  and  _120
REMARK   48  A    between atoms: _120  and  _121
REMARK   49  A    between atoms: _121  and  _122
REMARK   50  A    between atoms: _122  and  _123
REMARK   51  A    between atoms: _123  and  _124
REMARK   52  A    between atoms: _128  and  _130
REMARK   53  A    between atoms: _130  and  _131
REMARK   54  A    between atoms: _130  and  _133
REMARK   55  A    between atoms: _133  and  _134
REMARK   56  A    between atoms: _134  and  _135
REMARK   57  A    between atoms: _135  and  _136
REMARK   58  A    between atoms: _136  and  _137
REMARK   59  A    between atoms: _141  and  _143
REMARK   60  A    between atoms: _143  and  _144
REMARK   61  A    between atoms: _143  and  _146
REMARK   62  A    between atoms: _146  and  _147
REMARK   63  A    between atoms: _150  and  _152
REMARK   64  A    between atoms: _152  and  _153
REMARK   65  A    between atoms: _152  and  _155
REMARK   66  A    between atoms: _155  and  _156
REMARK   67  A    between atoms: _156  and  _157
REMARK   68  A    between atoms: _157  and  _158
REMARK   69  A    between atoms: _167  and  _169
REMARK   70  A    between atoms: _169  and  _170
REMARK   71  A    between atoms: _169  and  _172
REMARK   72  A    between atoms: _172  and  _173
REMARK   73  A    between atoms: _173  and  _174
REMARK   74  A    between atoms: _174  and  _175
REMARK   75  A    between atoms: _184  and  _186
REMARK   76  A    between atoms: _186  and  _187
REMARK   77  A    between atoms: _186  and  _189
REMARK   78  A    between atoms: _189  and  _190
REMARK   79  A    between atoms: _190  and  _191
REMARK   80  A    between atoms: _194  and  _196
REMARK   81  A    between atoms: _196  and  _197
REMARK   82  A    between atoms: _196  and  _199
REMARK   83  A    between atoms: _199  and  _200
REMARK   84  A    between atoms: _203  and  _205
REMARK   85  A    between atoms: _205  and  _206
REMARK   86  A    between atoms: _205  and  _208
REMARK   87  A    between atoms: _208  and  _209
REMARK   88  A    between atoms: _209  and  _210
REMARK   89  A    between atoms: _210  and  _211
REMARK   90  A    between atoms: _220  and  _222
REMARK   91  A    between atoms: _222  and  _223
REMARK   92  A    between atoms: _222  and  _225
REMARK   93  A    between atoms: _225  and  _226
REMARK   94  A    between atoms: _229  and  _231
REMARK   95  A    between atoms: _231  and  _232
REMARK   96  A    between atoms: _231  and  _234
REMARK   97  A    between atoms: _234  and  _235
REMARK   98  A    between atoms: _238  and  _240
REMARK   99  A    between atoms: _240  and  _241
REMARK  100  A    between atoms: _240  and  _243
REMARK  101  A    between atoms: _243  and  _244
REMARK  102  A    between atoms: _244  and  _245
REMARK  103  A    between atoms: _245  and  _246
REMARK  104  A    between atoms: _246  and  _247
REMARK  105  A    between atoms: _251  and  _253
REMARK  106  A    between atoms: _253  and  _254
REMARK  107  A    between atoms: _253  and  _256
REMARK  108  A    between atoms: _256  and  _257
REMARK  109  A    between atoms: _262  and  _264
REMARK  110  A    between atoms: _264  and  _265
REMARK  111  A    between atoms: _264  and  _267
REMARK  112  A    between atoms: _267  and  _268
REMARK  113  A    between atoms: _268  and  _269
REMARK  114  A    between atoms: _271  and  _273
REMARK  115  A    between atoms: _273  and  _274
REMARK  116  A    between atoms: _273  and  _276
REMARK  117  A    between atoms: _279  and  _281
REMARK  118  A    between atoms: _281  and  _282
REMARK  119  A    between atoms: _281  and  _284
REMARK  120  A    between atoms: _284  and  _285
REMARK  121  A    between atoms: _288  and  _290
REMARK  122  A    between atoms: _290  and  _291
REMARK  123  A    between atoms: _293  and  _295
REMARK  124  A    between atoms: _295  and  _296
REMARK  125  A    between atoms: _295  and  _298
REMARK  126  A    between atoms: _298  and  _299
REMARK  127  A    between atoms: _302  and  _304
REMARK  128  A    between atoms: _304  and  _305
REMARK  129  A    between atoms: _304  and  _307
REMARK  130  A    between atoms: _307  and  _308
REMARK  131  A    between atoms: _311  and  _313
REMARK  132  A    between atoms: _313  and  _314
REMARK  133  A    between atoms: _313  and  _316
REMARK  134  A    between atoms: _316  and  _317
REMARK  135  A    between atoms: _320  and  _322
REMARK  136  A    between atoms: _322  and  _323
REMARK  137  A    between atoms: _322  and  _325
REMARK  138  A    between atoms: _325  and  _326
REMARK  139  A    between atoms: _331  and  _332
REMARK  140  A    between atoms: _334  and  _336
REMARK  141  A    between atoms: _336  and  _337
REMARK  142  A    between atoms: _336  and  _339
REMARK  143  A    between atoms: _339  and  _340
REMARK  144  A    between atoms: _343  and  _345
REMARK  145  A    between atoms: _345  and  _346
REMARK  146  A    between atoms: _345  and  _348
REMARK  147  A    between atoms: _351  and  _353
REMARK  148  A    between atoms: _353  and  _354
REMARK  149  A    between atoms: _353  and  _356
REMARK  150  A    between atoms: _356  and  _357
REMARK  151  A    between atoms: _360  and  _362
REMARK  152  A    between atoms: _362  and  _363
REMARK  153  A    between atoms: _362  and  _365
REMARK  154  A    between atoms: _365  and  _366
REMARK  155  A    between atoms: _371  and  _373
REMARK  156  A    between atoms: _373  and  _374
REMARK  157  A    between atoms: _373  and  _376
REMARK  158  A    between atoms: _376  and  _377
REMARK  159  A    between atoms: _380  and  _382
REMARK  160  A    between atoms: _382  and  _383
REMARK  161  A    between atoms: _382  and  _385
REMARK  162  A    between atoms: _385  and  _386
REMARK  163  A    between atoms: _386  and  _387
REMARK  164  A    between atoms: _389  and  _391
REMARK  165  A    between atoms: _391  and  _392
REMARK  166  A    between atoms: _394  and  _396
REMARK  167  A    between atoms: _396  and  _397
REMARK  168  A    between atoms: _400  and  _402
REMARK  169  A    between atoms: _402  and  _403
REMARK  170  A    between atoms: _402  and  _405
REMARK  171  A    between atoms: _405  and  _406
REMARK  172  A    between atoms: _409  and  _411
REMARK  173  A    between atoms: _411  and  _412
REMARK  174  A    between atoms: _411  and  _414
REMARK  175  A    between atoms: _414  and  _415
REMARK  176  A    between atoms: _418  and  _420
REMARK  177  A    between atoms: _420  and  _421
REMARK  178  A    between atoms: _420  and  _423
REMARK  179  A    between atoms: _423  and  _424
REMARK  180  A    between atoms: _429  and  _431
REMARK  181  A    between atoms: _431  and  _432
REMARK  182  A    between atoms: _431  and  _434
REMARK  183  A    between atoms: _434  and  _435
REMARK  184  A    between atoms: _440  and  _442
REMARK  185  A    between atoms: _442  and  _443
REMARK  186  A    between atoms: _442  and  _445
REMARK  187  A    between atoms: _445  and  _446
REMARK  188  A    between atoms: _449  and  _451
REMARK  189  A    between atoms: _451  and  _452
REMARK  190  A    between atoms: _451  and  _454
REMARK  191  A    between atoms: _454  and  _455
REMARK  192  A    between atoms: _458  and  _460
REMARK  193  A    between atoms: _460  and  _461
REMARK  194  A    between atoms: _460  and  _463
REMARK  195  A    between atoms: _463  and  _464
REMARK  196  A    between atoms: _470  and  _471
REMARK  197  A    between atoms: _476  and  _478
REMARK  198  A    between atoms: _478  and  _479
REMARK  199  A    between atoms: _478  and  _481
REMARK  200  A    between atoms: _481  and  _482
REMARK  201  A    between atoms: _484  and  _486
REMARK  202  A    between atoms: _486  and  _487
REMARK  203  A    between atoms: _486  and  _489
REMARK  204  A    between atoms: _489  and  _490
REMARK  205  A    between atoms: _495  and  _497
REMARK  206  A    between atoms: _497  and  _498
REMARK  207  A    between atoms: _497  and  _500
REMARK  208  A    between atoms: _500  and  _501
REMARK  209  A    between atoms: _504  and  _506
REMARK  210  A    between atoms: _506  and  _507
REMARK  211  A    between atoms: _510  and  _512
REMARK  212  A    between atoms: _512  and  _513
REMARK  213  A    between atoms: _512  and  _515
REMARK  214  A    between atoms: _518  and  _520
REMARK  215  A    between atoms: _520  and  _521
REMARK  216  A    between atoms: _520  and  _523
REMARK  217  A    between atoms: _523  and  _524
REMARK  218  A    between atoms: _529  and  _531
REMARK  219  A    between atoms: _531  and  _532
REMARK  220  A    between atoms: _531  and  _534
REMARK  221  A    between atoms: _534  and  _535
REMARK  222  A    between atoms: _535  and  _536
REMARK  223  A    between atoms: _536  and  _537
REMARK  224  A    between atoms: _537  and  _538
REMARK  225  A    between atoms: _542  and  _544
REMARK  226  A    between atoms: _544  and  _545
REMARK  227  A    between atoms: _544  and  _547
REMARK  228  A    between atoms: _547  and  _548
REMARK  229  A    between atoms: _551  and  _553
REMARK  230  A    between atoms: _553  and  _554
REMARK  231  A    between atoms: _553  and  _556
REMARK  232  A    between atoms: _556  and  _557
REMARK  233  A    between atoms: _560  and  _562
REMARK  234  A    between atoms: _562  and  _563
REMARK  235  A    between atoms: _562  and  _565
REMARK  236  A    between atoms: _565  and  _566
REMARK  237  A    between atoms: _569  and  _571
REMARK  238  A    between atoms: _571  and  _572
REMARK  239  A    between atoms: _571  and  _574
REMARK  240  A    between atoms: _574  and  _575
REMARK  241  A    between atoms: _581  and  _583
REMARK  242  A    between atoms: _583  and  _584
REMARK  243  A    between atoms: _586  and  _588
REMARK  244  A    between atoms: _588  and  _589
REMARK  245  A    between atoms: _588  and  _591
REMARK  246  A    between atoms: _591  and  _592
REMARK  247  A    between atoms: _595  and  _597
REMARK  248  A    between atoms: _597  and  _598
REMARK  249  A    between atoms: _601  and  _603
REMARK  250  A    between atoms: _603  and  _604
REMARK  251  A    between atoms: _603  and  _606
REMARK  252  A    between atoms: _606  and  _607
REMARK  253  A    between atoms: _607  and  _608
REMARK  254  A    between atoms: _608  and  _609
REMARK  255  A    between atoms: _618  and  _620
REMARK  256  A    between atoms: _620  and  _621
REMARK  257  A    between atoms: _620  and  _623
REMARK  258  A    between atoms: _623  and  _624
REMARK  259  A    between atoms: _629  and  _630
REMARK                            x       y       z     vdW  Elec       q    Type
REMARK                         _______ _______ _______ _____ _____    ______ ____
ROOT
ATOM      1  O   HOH     1       3.696  16.271  29.788  0.00  0.00    +0.000 OA
ENDROOT
TORSDOF 0
REMARK  Name = ../refined-set-2016/2yix/2yix_pocket.pdb
REMARK  259 active torsions:
REMARK  status: ('A' for Active; 'I' for Inactive)
REMARK    1  A    between atoms: _1  and  _3
REMARK    2  A    between atoms: _3  and  _4
REMARK    3  A    between atoms: _3  and  _6
REMARK    4  A    between atoms: _9  and  _11
REMARK    5  A    between atoms: _11  and  _12
REMARK    6  A    between atoms: _14  and  _16
REMARK    7  A    between atoms: _16  and  _17
REMARK    8  A    between atoms: _16  and  _19
REMARK    9  A    between atoms: _19  and  _20
REMARK   10  A    between atoms: _22  and  _24
REMARK   11  A    between atoms: _24  and  _25
REMARK   12  A    between atoms: _28  and  _30
REMARK   13  A    between atoms: _30  and  _31
REMARK   14  A    between atoms: _30  and  _33
REMARK   15  A    between atoms: _33  and  _34
REMARK   16  A    between atoms: _39  and  _40
REMARK   17  A    between atoms: _42  and  _44
REMARK   18  A    between atoms: _44  and  _45
REMARK   19  A    between atoms: _47  and  _49
REMARK   20  A    between atoms: _49  and  _50
REMARK   21  A    between atoms: _49  and  _52
REMARK   22  A    between atoms: _52  and  _53
REMARK   23  A    between atoms: _55  and  _57
REMARK   24  A    between atoms: _57  and  _58
REMARK   25  A    between atoms: _57  and  _60
REMARK   26  A    between atoms: _63  and  _65
REMARK   27  A    between atoms: _65  and  _66
REMARK   28  A    between atoms: _65  and  _68
REMARK   29  A    between atoms: _70  and  _72
REMARK   30  A    between atoms: _72  and  _73
REMARK   31  A    between atoms: _76  and  _78
REMARK   32  A    between atoms: _78  and  _79
REMARK   33  A    between atoms: _78  and  _81
REMARK   34  A    between atoms: _81  and  _82
REMARK   35  A    between atoms: _82  and  _83
REMARK   36  A    between atoms: _83  and  _84
REMARK   37  A    between atoms: _93  and  _95
REMARK   38  A    between atoms: _95  and  _96
REMARK   39  A    between atoms: _95  and  _98
REMARK   40  A    between atoms: _101  and  _103
REMARK   41  A    between atoms: _103  and  _104
REMARK   42  A    between atoms: _107  and  _109
REMARK   43  A    between atoms: _109  and  _110
REMARK   44  A    between atoms: _109  and  _112
REMARK   45  A    between atoms: _115  and  _117
REMARK   46  A    between atoms: _117  and  _118
REMARK   47  A    between atoms: _117  and  _120
REMARK   48  A    between atoms: _120  and  _121
REMARK   49  A    between atoms: _121  and  _122
REMARK   50  A    between atoms: _122  and  _123
REMARK   51  A    between atoms: _123  and  _124
REMARK   52  A    between atoms: _128  and  _130
REMARK   53  A    between atoms: _130  and  _131
REMARK   54  A    between atoms: _130  and  _133
REMARK   55  A    between atoms: _133  and  _134
REMARK   56  A    between atoms: _134  and  _135
REMARK   57  A    between atoms: _135  and  _136
REMARK   58  A    between atoms: _136  and  _137
REMARK   59  A    between atoms: _141  and  _143
REMARK   60  A    between atoms: _143  and  _144
REMARK   61  A    between atoms: _143  and  _146
REMARK   62  A    between atoms: _146  and  _147
REMARK   63  A    between atoms: _150  and  _152
REMARK   64  A    between atoms: _152  and  _153
REMARK   65  A    between atoms: _152  and  _155
REMARK   66  A    between atoms: _155  and  _156
REMARK   67  A    between atoms: _156  and  _157
REMARK   68  A    between atoms: _157  and  _158
REMARK   69  A    between atoms: _167  and  _169
REMARK   70  A    between atoms: _169  and  _170
REMARK   71  A    between atoms: _169  and  _172
REMARK   72  A    between atoms: _172  and  _173
REMARK   73  A    between atoms: _173  and  _174
REMARK   74  A    between atoms: _174  and  _175
REMARK   75  A    between atoms: _184  and  _186
REMARK   76  A    between atoms: _186  and  _187
REMARK   77  A    between atoms: _186  and  _189
REMARK   78  A    between atoms: _189  and  _190
REMARK   79  A    between atoms: _190  and  _191
REMARK   80  A    between atoms: _194  and  _196
REMARK   81  A    between atoms: _196  and  _197
REMARK   82  A    between atoms: _196  and  _199
REMARK   83  A    between atoms: _199  and  _200
REMARK   84  A    between atoms: _203  and  _205
REMARK   85  A    between atoms: _205  and  _206
REMARK   86  A    between atoms: _205  and  _208
REMARK   87  A    between atoms: _208  and  _209
REMARK   88  A    between atoms: _209  and  _210
REMARK   89  A    between atoms: _210  and  _211
REMARK   90  A    between atoms: _220  and  _222
REMARK   91  A    between atoms: _222  and  _223
REMARK   92  A    between atoms: _222  and  _225
REMARK   93  A    between atoms: _225  and  _226
REMARK   94  A    between atoms: _229  and  _231
REMARK   95  A    between atoms: _231  and  _232
REMARK   96  A    between atoms: _231  and  _234
REMARK   97  A    between atoms: _234  and  _235
REMARK   98  A    between atoms: _238  and  _240
REMARK   99  A    between atoms: _240  and  _241
REMARK  100  A    between atoms: _240  and  _243
REMARK  101  A    between atoms: _243  and  _244
REMARK  102  A    between atoms: _244  and  _245
REMARK  103  A    between atoms: _245  and  _246
REMARK  104  A    between atoms: _246  and  _247
REMARK  105  A    between atoms: _251  and  _253
REMARK  106  A    between atoms: _253  and  _254
REMARK  107  A    between atoms: _253  and  _256
REMARK  108  A    between atoms: _256  and  _257
REMARK  109  A    between atoms: _262  and  _264
REMARK  110  A    between atoms: _264  and  _265
REMARK  111  A    between atoms: _264  and  _267
REMARK  112  A    between atoms: _267  and  _268
REMARK  113  A    between atoms: _268  and  _269
REMARK  114  A    between atoms: _271  and  _273
REMARK  115  A    between atoms: _273  and  _274
REMARK  116  A    between atoms: _273  and  _276
REMARK  117  A    between atoms: _279  and  _281
REMARK  118  A    between atoms: _281  and  _282
REMARK  119  A    between atoms: _281  and  _284
REMARK  120  A    between atoms: _284  and  _285
REMARK  121  A    between atoms: _288  and  _290
REMARK  122  A    between atoms: _290  and  _291
REMARK  123  A    between atoms: _293  and  _295
REMARK  124  A    between atoms: _295  and  _296
REMARK  125  A    between atoms: _295  and  _298
REMARK  126  A    between atoms: _298  and  _299
REMARK  127  A    between atoms: _302  and  _304
REMARK  128  A    between atoms: _304  and  _305
REMARK  129  A    between atoms: _304  and  _307
REMARK  130  A    between atoms: _307  and  _308
REMARK  131  A    between atoms: _311  and  _313
REMARK  132  A    between atoms: _313  and  _314
REMARK  133  A    between atoms: _313  and  _316
REMARK  134  A    between atoms: _316  and  _317
REMARK  135  A    between atoms: _320  and  _322
REMARK  136  A    between atoms: _322  and  _323
REMARK  137  A    between atoms: _322  and  _325
REMARK  138  A    between atoms: _325  and  _326
REMARK  139  A    between atoms: _331  and  _332
REMARK  140  A    between atoms: _334  and  _336
REMARK  141  A    between atoms: _336  and  _337
REMARK  142  A    between atoms: _336  and  _339
REMARK  143  A    between atoms: _339  and  _340
REMARK  144  A    between atoms: _343  and  _345
REMARK  145  A    between atoms: _345  and  _346
REMARK  146  A    between atoms: _345  and  _348
REMARK  147  A    between atoms: _351  and  _353
REMARK  148  A    between atoms: _353  and  _354
REMARK  149  A    between atoms: _353  and  _356
REMARK  150  A    between atoms: _356  and  _357
REMARK  151  A    between atoms: _360  and  _362
REMARK  152  A    between atoms: _362  and  _363
REMARK  153  A    between atoms: _362  and  _365
REMARK  154  A    between atoms: _365  and  _366
REMARK  155  A    between atoms: _371  and  _373
REMARK  156  A    between atoms: _373  and  _374
REMARK  157  A    between atoms: _373  and  _376
REMARK  158  A    between atoms: _376  and  _377
REMARK  159  A    between atoms: _380  and  _382
REMARK  160  A    between atoms: _382  and  _383
REMARK  161  A    between atoms: _382  and  _385
REMARK  162  A    between atoms: _385  and  _386
REMARK  163  A    between atoms: _386  and  _387
REMARK  164  A    between atoms: _389  and  _391
REMARK  165  A    between atoms: _391  and  _392
REMARK  166  A    between atoms: _394  and  _396
REMARK  167  A    between atoms: _396  and  _397
REMARK  168  A    between atoms: _400  and  _402
REMARK  169  A    between atoms: _402  and  _403
REMARK  170  A    between atoms: _402  and  _405
REMARK  171  A    between atoms: _405  and  _406
REMARK  172  A    between atoms: _409  and  _411
REMARK  173  A    between atoms: _411  and  _412
REMARK  174  A    between atoms: _411  and  _414
REMARK  175  A    between atoms: _414  and  _415
REMARK  176  A    between atoms: _418  and  _420
REMARK  177  A    between atoms: _420  and  _421
REMARK  178  A    between atoms: _420  and  _423
REMARK  179  A    between atoms: _423  and  _424
REMARK  180  A    between atoms: _429  and  _431
REMARK  181  A    between atoms: _431  and  _432
REMARK  182  A    between atoms: _431  and  _434
REMARK  183  A    between atoms: _434  and  _435
REMARK  184  A    between atoms: _440  and  _442
REMARK  185  A    between atoms: _442  and  _443
REMARK  186  A    between atoms: _442  and  _445
REMARK  187  A    between atoms: _445  and  _446
REMARK  188  A    between atoms: _449  and  _451
REMARK  189  A    between atoms: _451  and  _452
REMARK  190  A    between atoms: _451  and  _454
REMARK  191  A    between atoms: _454  and  _455
REMARK  192  A    between atoms: _458  and  _460
REMARK  193  A    between atoms: _460  and  _461
REMARK  194  A    between atoms: _460  and  _463
REMARK  195  A    between atoms: _463  and  _464
REMARK  196  A    between atoms: _470  and  _471
REMARK  197  A    between atoms: _476  and  _478
REMARK  198  A    between atoms: _478  and  _479
REMARK  199  A    between atoms: _478  and  _481
REMARK  200  A    between atoms: _481  and  _482
REMARK  201  A    between atoms: _484  and  _486
REMARK  202  A    between atoms: _486  and  _487
REMARK  203  A    between atoms: _486  and  _489
REMARK  204  A    between atoms: _489  and  _490
REMARK  205  A    between atoms: _495  and  _497
REMARK  206  A    between atoms: _497  and  _498
REMARK  207  A    between atoms: _497  and  _500
REMARK  208  A    between atoms: _500  and  _501
REMARK  209  A    between atoms: _504  and  _506
REMARK  210  A    between atoms: _506  and  _507
REMARK  211  A    between atoms: _510  and  _512
REMARK  212  A    between atoms: _512  and  _513
REMARK  213  A    between atoms: _512  and  _515
REMARK  214  A    between atoms: _518  and  _520
REMARK  215  A    between atoms: _520  and  _521
REMARK  216  A    between atoms: _520  and  _523
REMARK  217  A    between atoms: _523  and  _524
REMARK  218  A    between atoms: _529  and  _531
REMARK  219  A    between atoms: _531  and  _532
REMARK  220  A    between atoms: _531  and  _534
REMARK  221  A    between atoms: _534  and  _535
REMARK  222  A    between atoms: _535  and  _536
REMARK  223  A    between atoms: _536  and  _537
REMARK  224  A    between atoms: _537  and  _538
REMARK  225  A    between atoms: _542  and  _544
REMARK  226  A    between atoms: _544  and  _545
REMARK  227  A    between atoms: _544  and  _547
REMARK  228  A    between atoms: _547  and  _548
REMARK  229  A    between atoms: _551  and  _553
REMARK  230  A    between atoms: _553  and  _554
REMARK  231  A    between atoms: _553  and  _556
REMARK  232  A    between atoms: _556  and  _557
REMARK  233  A    between atoms: _560  and  _562
REMARK  234  A    between atoms: _562  and  _563
REMARK  235  A    between atoms: _562  and  _565
REMARK  236  A    between atoms: _565  and  _566
REMARK  237  A    between atoms: _569  and  _571
REMARK  238  A    between atoms: _571  and  _572
REMARK  239  A    between atoms: _571  and  _574
REMARK  240  A    between atoms: _574  and  _575
REMARK  241  A    between atoms: _581  and  _583
REMARK  242  A    between atoms: _583  and  _584
REMARK  243  A    between atoms: _586  and  _588
REMARK  244  A    between atoms: _588  and  _589
REMARK  245  A    between atoms: _588  and  _591
REMARK  246  A    between atoms: _591  and  _592
REMARK  247  A    between atoms: _595  and  _597
REMARK  248  A    between atoms: _597  and  _598
REMARK  249  A    between atoms: _601  and  _603
REMARK  250  A    between atoms: _603  and  _604
REMARK  251  A    between atoms: _603  and  _606
REMARK  252  A    between atoms: _606  and  _607
REMARK  253  A    between atoms: _607  and  _608
REMARK  254  A    between atoms: _608  and  _609
REMARK  255  A    between atoms: _618  and  _620
REMARK  256  A    between atoms: _620  and  _621
REMARK  257  A    between atoms: _620  and  _623
REMARK  258  A    between atoms: _623  and  _624
REMARK  259  A    between atoms: _629  and  _630
REMARK                            x       y       z     vdW  Elec       q    Type
REMARK                         _______ _______ _______ _____ _____    ______ ____
ROOT
ATOM      1  O   HOH     1      -6.026  12.401  29.881  0.00  0.00    +0.000 OA
ENDROOT
TORSDOF 0
REMARK  Name = ../refined-set-2016/2yix/2yix_pocket.pdb
REMARK  259 active torsions:
REMARK  status: ('A' for Active; 'I' for Inactive)
REMARK    1  A    between atoms: _1  and  _3
REMARK    2  A    between atoms: _3  and  _4
REMARK    3  A    between atoms: _3  and  _6
REMARK    4  A    between atoms: _9  and  _11
REMARK    5  A    between atoms: _11  and  _12
REMARK    6  A    between atoms: _14  and  _16
REMARK    7  A    between atoms: _16  and  _17
REMARK    8  A    between atoms: _16  and  _19
REMARK    9  A    between atoms: _19  and  _20
REMARK   10  A    between atoms: _22  and  _24
REMARK   11  A    between atoms: _24  and  _25
REMARK   12  A    between atoms: _28  and  _30
REMARK   13  A    between atoms: _30  and  _31
REMARK   14  A    between atoms: _30  and  _33
REMARK   15  A    between atoms: _33  and  _34
REMARK   16  A    between atoms: _39  and  _40
REMARK   17  A    between atoms: _42  and  _44
REMARK   18  A    between atoms: _44  and  _45
REMARK   19  A    between atoms: _47  and  _49
REMARK   20  A    between atoms: _49  and  _50
REMARK   21  A    between atoms: _49  and  _52
REMARK   22  A    between atoms: _52  and  _53
REMARK   23  A    between atoms: _55  and  _57
REMARK   24  A    between atoms: _57  and  _58
REMARK   25  A    between atoms: _57  and  _60
REMARK   26  A    between atoms: _63  and  _65
REMARK   27  A    between atoms: _65  and  _66
REMARK   28  A    between atoms: _65  and  _68
REMARK   29  A    between atoms: _70  and  _72
REMARK   30  A    between atoms: _72  and  _73
REMARK   31  A    between atoms: _76  and  _78
REMARK   32  A    between atoms: _78  and  _79
REMARK   33  A    between atoms: _78  and  _81
REMARK   34  A    between atoms: _81  and  _82
REMARK   35  A    between atoms: _82  and  _83
REMARK   36  A    between atoms: _83  and  _84
REMARK   37  A    between atoms: _93  and  _95
REMARK   38  A    between atoms: _95  and  _96
REMARK   39  A    between atoms: _95  and  _98
REMARK   40  A    between atoms: _101  and  _103
REMARK   41  A    between atoms: _103  and  _104
REMARK   42  A    between atoms: _107  and  _109
REMARK   43  A    between atoms: _109  and  _110
REMARK   44  A    between atoms: _109  and  _112
REMARK   45  A    between atoms: _115  and  _117
REMARK   46  A    between atoms: _117  and  _118
REMARK   47  A    between atoms: _117  and  _120
REMARK   48  A    between atoms: _120  and  _121
REMARK   49  A    between atoms: _121  and  _122
REMARK   50  A    between atoms: _122  and  _123
REMARK   51  A    between atoms: _123  and  _124
REMARK   52  A    between atoms: _128  and  _130
REMARK   53  A    between atoms: _130  and  _131
REMARK   54  A    between atoms: _130  and  _133
REMARK   55  A    between atoms: _133  and  _134
REMARK   56  A    between atoms: _134  and  _135
REMARK   57  A    between atoms: _135  and  _136
REMARK   58  A    between atoms: _136  and  _137
REMARK   59  A    between atoms: _141  and  _143
REMARK   60  A    between atoms: _143  and  _144
REMARK   61  A    between atoms: _143  and  _146
REMARK   62  A    between atoms: _146  and  _147
REMARK   63  A    between atoms: _150  and  _152
REMARK   64  A    between atoms: _152  and  _153
REMARK   65  A    between atoms: _152  and  _155
REMARK   66  A    between atoms: _155  and  _156
REMARK   67  A    between atoms: _156  and  _157
REMARK   68  A    between atoms: _157  and  _158
REMARK   69  A    between atoms: _167  and  _169
REMARK   70  A    between atoms: _169  and  _170
REMARK   71  A    between atoms: _169  and  _172
REMARK   72  A    between atoms: _172  and  _173
REMARK   73  A    between atoms: _173  and  _174
REMARK   74  A    between atoms: _174  and  _175
REMARK   75  A    between atoms: _184  and  _186
REMARK   76  A    between atoms: _186  and  _187
REMARK   77  A    between atoms: _186  and  _189
REMARK   78  A    between atoms: _189  and  _190
REMARK   79  A    between atoms: _190  and  _191
REMARK   80  A    between atoms: _194  and  _196
REMARK   81  A    between atoms: _196  and  _197
REMARK   82  A    between atoms: _196  and  _199
REMARK   83  A    between atoms: _199  and  _200
REMARK   84  A    between atoms: _203  and  _205
REMARK   85  A    between atoms: _205  and  _206
REMARK   86  A    between atoms: _205  and  _208
REMARK   87  A    between atoms: _208  and  _209
REMARK   88  A    between atoms: _209  and  _210
REMARK   89  A    between atoms: _210  and  _211
REMARK   90  A    between atoms: _220  and  _222
REMARK   91  A    between atoms: _222  and  _223
REMARK   92  A    between atoms: _222  and  _225
REMARK   93  A    between atoms: _225  and  _226
REMARK   94  A    between atoms: _229  and  _231
REMARK   95  A    between atoms: _231  and  _232
REMARK   96  A    between atoms: _231  and  _234
REMARK   97  A    between atoms: _234  and  _235
REMARK   98  A    between atoms: _238  and  _240
REMARK   99  A    between atoms: _240  and  _241
REMARK  100  A    between atoms: _240  and  _243
REMARK  101  A    between atoms: _243  and  _244
REMARK  102  A    between atoms: _244  and  _245
REMARK  103  A    between atoms: _245  and  _246
REMARK  104  A    between atoms: _246  and  _247
REMARK  105  A    between atoms: _251  and  _253
REMARK  106  A    between atoms: _253  and  _254
REMARK  107  A    between atoms: _253  and  _256
REMARK  108  A    between atoms: _256  and  _257
REMARK  109  A    between atoms: _262  and  _264
REMARK  110  A    between atoms: _264  and  _265
REMARK  111  A    between atoms: _264  and  _267
REMARK  112  A    between atoms: _267  and  _268
REMARK  113  A    between atoms: _268  and  _269
REMARK  114  A    between atoms: _271  and  _273
REMARK  115  A    between atoms: _273  and  _274
REMARK  116  A    between atoms: _273  and  _276
REMARK  117  A    between atoms: _279  and  _281
REMARK  118  A    between atoms: _281  and  _282
REMARK  119  A    between atoms: _281  and  _284
REMARK  120  A    between atoms: _284  and  _285
REMARK  121  A    between atoms: _288  and  _290
REMARK  122  A    between atoms: _290  and  _291
REMARK  123  A    between atoms: _293  and  _295
REMARK  124  A    between atoms: _295  and  _296
REMARK  125  A    between atoms: _295  and  _298
REMARK  126  A    between atoms: _298  and  _299
REMARK  127  A    between atoms: _302  and  _304
REMARK  128  A    between atoms: _304  and  _305
REMARK  129  A    between atoms: _304  and  _307
REMARK  130  A    between atoms: _307  and  _308
REMARK  131  A    between atoms: _311  and  _313
REMARK  132  A    between atoms: _313  and  _314
REMARK  133  A    between atoms: _313  and  _316
REMARK  134  A    between atoms: _316  and  _317
REMARK  135  A    between atoms: _320  and  _322
REMARK  136  A    between atoms: _322  and  _323
REMARK  137  A    between atoms: _322  and  _325
REMARK  138  A    between atoms: _325  and  _326
REMARK  139  A    between atoms: _331  and  _332
REMARK  140  A    between atoms: _334  and  _336
REMARK  141  A    between atoms: _336  and  _337
REMARK  142  A    between atoms: _336  and  _339
REMARK  143  A    between atoms: _339  and  _340
REMARK  144  A    between atoms: _343  and  _345
REMARK  145  A    between atoms: _345  and  _346
REMARK  146  A    between atoms: _345  and  _348
REMARK  147  A    between atoms: _351  and  _353
REMARK  148  A    between atoms: _353  and  _354
REMARK  149  A    between atoms: _353  and  _356
REMARK  150  A    between atoms: _356  and  _357
REMARK  151  A    between atoms: _360  and  _362
REMARK  152  A    between atoms: _362  and  _363
REMARK  153  A    between atoms: _362  and  _365
REMARK  154  A    between atoms: _365  and  _366
REMARK  155  A    between atoms: _371  and  _373
REMARK  156  A    between atoms: _373  and  _374
REMARK  157  A    between atoms: _373  and  _376
REMARK  158  A    between atoms: _376  and  _377
REMARK  159  A    between atoms: _380  and  _382
REMARK  160  A    between atoms: _382  and  _383
REMARK  161  A    between atoms: _382  and  _385
REMARK  162  A    between atoms: _385  and  _386
REMARK  163  A    between atoms: _386  and  _387
REMARK  164  A    between atoms: _389  and  _391
REMARK  165  A    between atoms: _391  and  _392
REMARK  166  A    between atoms: _394  and  _396
REMARK  167  A    between atoms: _396  and  _397
REMARK  168  A    between atoms: _400  and  _402
REMARK  169  A    between atoms: _402  and  _403
REMARK  170  A    between atoms: _402  and  _405
REMARK  171  A    between atoms: _405  and  _406
REMARK  172  A    between atoms: _409  and  _411
REMARK  173  A    between atoms: _411  and  _412
REMARK  174  A    between atoms: _411  and  _414
REMARK  175  A    between atoms: _414  and  _415
REMARK  176  A    between atoms: _418  and  _420
REMARK  177  A    between atoms: _420  and  _421
REMARK  178  A    between atoms: _420  and  _423
REMARK  179  A    between atoms: _423  and  _424
REMARK  180  A    between atoms: _429  and  _431
REMARK  181  A    between atoms: _431  and  _432
REMARK  182  A    between atoms: _431  and  _434
REMARK  183  A    between atoms: _434  and  _435
REMARK  184  A    between atoms: _440  and  _442
REMARK  185  A    between atoms: _442  and  _443
REMARK  186  A    between atoms: _442  and  _445
REMARK  187  A    between atoms: _445  and  _446
REMARK  188  A    between atoms: _449  and  _451
REMARK  189  A    between atoms: _451  and  _452
REMARK  190  A    between atoms: _451  and  _454
REMARK  191  A    between atoms: _454  and  _455
REMARK  192  A    between atoms: _458  and  _460
REMARK  193  A    between atoms: _460  and  _461
REMARK  194  A    between atoms: _460  and  _463
REMARK  195  A    between atoms: _463  and  _464
REMARK  196  A    between atoms: _470  and  _471
REMARK  197  A    between atoms: _476  and  _478
REMARK  198  A    between atoms: _478  and  _479
REMARK  199  A    between atoms: _478  and  _481
REMARK  200  A    between atoms: _481  and  _482
REMARK  201  A    between atoms: _484  and  _486
REMARK  202  A    between atoms: _486  and  _487
REMARK  203  A    between atoms: _486  and  _489
REMARK  204  A    between atoms: _489  and  _490
REMARK  205  A    between atoms: _495  and  _497
REMARK  206  A    between atoms: _497  and  _498
REMARK  207  A    between atoms: _497  and  _500
REMARK  208  A    between atoms: _500  and  _501
REMARK  209  A    between atoms: _504  and  _506
REMARK  210  A    between atoms: _506  and  _507
REMARK  211  A    between atoms: _510  and  _512
REMARK  212  A    between atoms: _512  and  _513
REMARK  213  A    between atoms: _512  and  _515
REMARK  214  A    between atoms: _518  and  _520
REMARK  215  A    between atoms: _520  and  _521
REMARK  216  A    between atoms: _520  and  _523
REMARK  217  A    between atoms: _523  and  _524
REMARK  218  A    between atoms: _529  and  _531
REMARK  219  A    between atoms: _531  and  _532
REMARK  220  A    between atoms: _531  and  _534
REMARK  221  A    between atoms: _534  and  _535
REMARK  222  A    between atoms: _535  and  _536
REMARK  223  A    between atoms: _536  and  _537
REMARK  224  A    between atoms: _537  and  _538
REMARK  225  A    between atoms: _542  and  _544
REMARK  226  A    between atoms: _544  and  _545
REMARK  227  A    between atoms: _544  and  _547
REMARK  228  A    between atoms: _547  and  _548
REMARK  229  A    between atoms: _551  and  _553
REMARK  230  A    between atoms: _553  and  _554
REMARK  231  A    between atoms: _553  and  _556
REMARK  232  A    between atoms: _556  and  _557
REMARK  233  A    between atoms: _560  and  _562
REMARK  234  A    between atoms: _562  and  _563
REMARK  235  A    between atoms: _562  and  _565
REMARK  236  A    between atoms: _565  and  _566
REMARK  237  A    between atoms: _569  and  _571
REMARK  238  A    between atoms: _571  and  _572
REMARK  239  A    between atoms: _571  and  _574
REMARK  240  A    between atoms: _574  and  _575
REMARK  241  A    between atoms: _581  and  _583
REMARK  242  A    between atoms: _583  and  _584
REMARK  243  A    between atoms: _586  and  _588
REMARK  244  A    between atoms: _588  and  _589
REMARK  245  A    between atoms: _588  and  _591
REMARK  246  A    between atoms: _591  and  _592
REMARK  247  A    between atoms: _595  and  _597
REMARK  248  A    between atoms: _597  and  _598
REMARK  249  A    between atoms: _601  and  _603
REMARK  250  A    between atoms: _603  and  _604
REMARK  251  A    between atoms: _603  and  _606
REMARK  252  A    between atoms: _606  and  _607
REMARK  253  A    between atoms: _607  and  _608
REMARK  254  A    between atoms: _608  and  _609
REMARK  255  A    between atoms: _618  and  _620
REMARK  256  A    between atoms: _620  and  _621
REMARK  257  A    between atoms: _620  and  _623
REMARK  258  A    between atoms: _623  and  _624
REMARK  259  A    between atoms: _629  and  _630
REMARK                            x       y       z     vdW  Elec       q    Type
REMARK                         _______ _______ _______ _____ _____    ______ ____
ROOT
ATOM      1  O   HOH     1      -5.998  15.948  30.073  0.00  0.00    +0.000 OA
ENDROOT
TORSDOF 0
REMARK  Name = ../refined-set-2016/2yix/2yix_pocket.pdb
REMARK  259 active torsions:
REMARK  status: ('A' for Active; 'I' for Inactive)
REMARK    1  A    between atoms: _1  and  _3
REMARK    2  A    between atoms: _3  and  _4
REMARK    3  A    between atoms: _3  and  _6
REMARK    4  A    between atoms: _9  and  _11
REMARK    5  A    between atoms: _11  and  _12
REMARK    6  A    between atoms: _14  and  _16
REMARK    7  A    between atoms: _16  and  _17
REMARK    8  A    between atoms: _16  and  _19
REMARK    9  A    between atoms: _19  and  _20
REMARK   10  A    between atoms: _22  and  _24
REMARK   11  A    between atoms: _24  and  _25
REMARK   12  A    between atoms: _28  and  _30
REMARK   13  A    between atoms: _30  and  _31
REMARK   14  A    between atoms: _30  and  _33
REMARK   15  A    between atoms: _33  and  _34
REMARK   16  A    between atoms: _39  and  _40
REMARK   17  A    between atoms: _42  and  _44
REMARK   18  A    between atoms: _44  and  _45
REMARK   19  A    between atoms: _47  and  _49
REMARK   20  A    between atoms: _49  and  _50
REMARK   21  A    between atoms: _49  and  _52
REMARK   22  A    between atoms: _52  and  _53
REMARK   23  A    between atoms: _55  and  _57
REMARK   24  A    between atoms: _57  and  _58
REMARK   25  A    between atoms: _57  and  _60
REMARK   26  A    between atoms: _63  and  _65
REMARK   27  A    between atoms: _65  and  _66
REMARK   28  A    between atoms: _65  and  _68
REMARK   29  A    between atoms: _70  and  _72
REMARK   30  A    between atoms: _72  and  _73
REMARK   31  A    between atoms: _76  and  _78
REMARK   32  A    between atoms: _78  and  _79
REMARK   33  A    between atoms: _78  and  _81
REMARK   34  A    between atoms: _81  and  _82
REMARK   35  A    between atoms: _82  and  _83
REMARK   36  A    between atoms: _83  and  _84
REMARK   37  A    between atoms: _93  and  _95
REMARK   38  A    between atoms: _95  and  _96
REMARK   39  A    between atoms: _95  and  _98
REMARK   40  A    between atoms: _101  and  _103
REMARK   41  A    between atoms: _103  and  _104
REMARK   42  A    between atoms: _107  and  _109
REMARK   43  A    between atoms: _109  and  _110
REMARK   44  A    between atoms: _109  and  _112
REMARK   45  A    between atoms: _115  and  _117
REMARK   46  A    between atoms: _117  and  _118
REMARK   47  A    between atoms: _117  and  _120
REMARK   48  A    between atoms: _120  and  _121
REMARK   49  A    between atoms: _121  and  _122
REMARK   50  A    between atoms: _122  and  _123
REMARK   51  A    between atoms: _123  and  _124
REMARK   52  A    between atoms: _128  and  _130
REMARK   53  A    between atoms: _130  and  _131
REMARK   54  A    between atoms: _130  and  _133
REMARK   55  A    between atoms: _133  and  _134
REMARK   56  A    between atoms: _134  and  _135
REMARK   57  A    between atoms: _135  and  _136
REMARK   58  A    between atoms: _136  and  _137
REMARK   59  A    between atoms: _141  and  _143
REMARK   60  A    between atoms: _143  and  _144
REMARK   61  A    between atoms: _143  and  _146
REMARK   62  A    between atoms: _146  and  _147
REMARK   63  A    between atoms: _150  and  _152
REMARK   64  A    between atoms: _152  and  _153
REMARK   65  A    between atoms: _152  and  _155
REMARK   66  A    between atoms: _155  and  _156
REMARK   67  A    between atoms: _156  and  _157
REMARK   68  A    between atoms: _157  and  _158
REMARK   69  A    between atoms: _167  and  _169
REMARK   70  A    between atoms: _169  and  _170
REMARK   71  A    between atoms: _169  and  _172
REMARK   72  A    between atoms: _172  and  _173
REMARK   73  A    between atoms: _173  and  _174
REMARK   74  A    between atoms: _174  and  _175
REMARK   75  A    between atoms: _184  and  _186
REMARK   76  A    between atoms: _186  and  _187
REMARK   77  A    between atoms: _186  and  _189
REMARK   78  A    between atoms: _189  and  _190
REMARK   79  A    between atoms: _190  and  _191
REMARK   80  A    between atoms: _194  and  _196
REMARK   81  A    between atoms: _196  and  _197
REMARK   82  A    between atoms: _196  and  _199
REMARK   83  A    between atoms: _199  and  _200
REMARK   84  A    between atoms: _203  and  _205
REMARK   85  A    between atoms: _205  and  _206
REMARK   86  A    between atoms: _205  and  _208
REMARK   87  A    between atoms: _208  and  _209
REMARK   88  A    between atoms: _209  and  _210
REMARK   89  A    between atoms: _210  and  _211
REMARK   90  A    between atoms: _220  and  _222
REMARK   91  A    between atoms: _222  and  _223
REMARK   92  A    between atoms: _222  and  _225
REMARK   93  A    between atoms: _225  and  _226
REMARK   94  A    between atoms: _229  and  _231
REMARK   95  A    between atoms: _231  and  _232
REMARK   96  A    between atoms: _231  and  _234
REMARK   97  A    between atoms: _234  and  _235
REMARK   98  A    between atoms: _238  and  _240
REMARK   99  A    between atoms: _240  and  _241
REMARK  100  A    between atoms: _240  and  _243
REMARK  101  A    between atoms: _243  and  _244
REMARK  102  A    between atoms: _244  and  _245
REMARK  103  A    between atoms: _245  and  _246
REMARK  104  A    between atoms: _246  and  _247
REMARK  105  A    between atoms: _251  and  _253
REMARK  106  A    between atoms: _253  and  _254
REMARK  107  A    between atoms: _253  and  _256
REMARK  108  A    between atoms: _256  and  _257
REMARK  109  A    between atoms: _262  and  _264
REMARK  110  A    between atoms: _264  and  _265
REMARK  111  A    between atoms: _264  and  _267
REMARK  112  A    between atoms: _267  and  _268
REMARK  113  A    between atoms: _268  and  _269
REMARK  114  A    between atoms: _271  and  _273
REMARK  115  A    between atoms: _273  and  _274
REMARK  116  A    between atoms: _273  and  _276
REMARK  117  A    between atoms: _279  and  _281
REMARK  118  A    between atoms: _281  and  _282
REMARK  119  A    between atoms: _281  and  _284
REMARK  120  A    between atoms: _284  and  _285
REMARK  121  A    between atoms: _288  and  _290
REMARK  122  A    between atoms: _290  and  _291
REMARK  123  A    between atoms: _293  and  _295
REMARK  124  A    between atoms: _295  and  _296
REMARK  125  A    between atoms: _295  and  _298
REMARK  126  A    between atoms: _298  and  _299
REMARK  127  A    between atoms: _302  and  _304
REMARK  128  A    between atoms: _304  and  _305
REMARK  129  A    between atoms: _304  and  _307
REMARK  130  A    between atoms: _307  and  _308
REMARK  131  A    between atoms: _311  and  _313
REMARK  132  A    between atoms: _313  and  _314
REMARK  133  A    between atoms: _313  and  _316
REMARK  134  A    between atoms: _316  and  _317
REMARK  135  A    between atoms: _320  and  _322
REMARK  136  A    between atoms: _322  and  _323
REMARK  137  A    between atoms: _322  and  _325
REMARK  138  A    between atoms: _325  and  _326
REMARK  139  A    between atoms: _331  and  _332
REMARK  140  A    between atoms: _334  and  _336
REMARK  141  A    between atoms: _336  and  _337
REMARK  142  A    between atoms: _336  and  _339
REMARK  143  A    between atoms: _339  and  _340
REMARK  144  A    between atoms: _343  and  _345
REMARK  145  A    between atoms: _345  and  _346
REMARK  146  A    between atoms: _345  and  _348
REMARK  147  A    between atoms: _351  and  _353
REMARK  148  A    between atoms: _353  and  _354
REMARK  149  A    between atoms: _353  and  _356
REMARK  150  A    between atoms: _356  and  _357
REMARK  151  A    between atoms: _360  and  _362
REMARK  152  A    between atoms: _362  and  _363
REMARK  153  A    between atoms: _362  and  _365
REMARK  154  A    between atoms: _365  and  _366
REMARK  155  A    between atoms: _371  and  _373
REMARK  156  A    between atoms: _373  and  _374
REMARK  157  A    between atoms: _373  and  _376
REMARK  158  A    between atoms: _376  and  _377
REMARK  159  A    between atoms: _380  and  _382
REMARK  160  A    between atoms: _382  and  _383
REMARK  161  A    between atoms: _382  and  _385
REMARK  162  A    between atoms: _385  and  _386
REMARK  163  A    between atoms: _386  and  _387
REMARK  164  A    between atoms: _389  and  _391
REMARK  165  A    between atoms: _391  and  _392
REMARK  166  A    between atoms: _394  and  _396
REMARK  167  A    between atoms: _396  and  _397
REMARK  168  A    between atoms: _400  and  _402
REMARK  169  A    between atoms: _402  and  _403
REMARK  170  A    between atoms: _402  and  _405
REMARK  171  A    between atoms: _405  and  _406
REMARK  172  A    between atoms: _409  and  _411
REMARK  173  A    between atoms: _411  and  _412
REMARK  174  A    between atoms: _411  and  _414
REMARK  175  A    between atoms: _414  and  _415
REMARK  176  A    between atoms: _418  and  _420
REMARK  177  A    between atoms: _420  and  _421
REMARK  178  A    between atoms: _420  and  _423
REMARK  179  A    between atoms: _423  and  _424
REMARK  180  A    between atoms: _429  and  _431
REMARK  181  A    between atoms: _431  and  _432
REMARK  182  A    between atoms: _431  and  _434
REMARK  183  A    between atoms: _434  and  _435
REMARK  184  A    between atoms: _440  and  _442
REMARK  185  A    between atoms: _442  and  _443
REMARK  186  A    between atoms: _442  and  _445
REMARK  187  A    between atoms: _445  and  _446
REMARK  188  A    between atoms: _449  and  _451
REMARK  189  A    between atoms: _451  and  _452
REMARK  190  A    between atoms: _451  and  _454
REMARK  191  A    between atoms: _454  and  _455
REMARK  192  A    between atoms: _458  and  _460
REMARK  193  A    between atoms: _460  and  _461
REMARK  194  A    between atoms: _460  and  _463
REMARK  195  A    between atoms: _463  and  _464
REMARK  196  A    between atoms: _470  and  _471
REMARK  197  A    between atoms: _476  and  _478
REMARK  198  A    between atoms: _478  and  _479
REMARK  199  A    between atoms: _478  and  _481
REMARK  200  A    between atoms: _481  and  _482
REMARK  201  A    between atoms: _484  and  _486
REMARK  202  A    between atoms: _486  and  _487
REMARK  203  A    between atoms: _486  and  _489
REMARK  204  A    between atoms: _489  and  _490
REMARK  205  A    between atoms: _495  and  _497
REMARK  206  A    between atoms: _497  and  _498
REMARK  207  A    between atoms: _497  and  _500
REMARK  208  A    between atoms: _500  and  _501
REMARK  209  A    between atoms: _504  and  _506
REMARK  210  A    between atoms: _506  and  _507
REMARK  211  A    between atoms: _510  and  _512
REMARK  212  A    between atoms: _512  and  _513
REMARK  213  A    between atoms: _512  and  _515
REMARK  214  A    between atoms: _518  and  _520
REMARK  215  A    between atoms: _520  and  _521
REMARK  216  A    between atoms: _520  and  _523
REMARK  217  A    between atoms: _523  and  _524
REMARK  218  A    between atoms: _529  and  _531
REMARK  219  A    between atoms: _531  and  _532
REMARK  220  A    between atoms: _531  and  _534
REMARK  221  A    between atoms: _534  and  _535
REMARK  222  A    between atoms: _535  and  _536
REMARK  223  A    between atoms: _536  and  _537
REMARK  224  A    between atoms: _537  and  _538
REMARK  225  A    between atoms: _542  and  _544
REMARK  226  A    between atoms: _544  and  _545
REMARK  227  A    between atoms: _544  and  _547
REMARK  228  A    between atoms: _547  and  _548
REMARK  229  A    between atoms: _551  and  _553
REMARK  230  A    between atoms: _553  and  _554
REMARK  231  A    between atoms: _553  and  _556
REMARK  232  A    between atoms: _556  and  _557
REMARK  233  A    between atoms: _560  and  _562
REMARK  234  A    between atoms: _562  and  _563
REMARK  235  A    between atoms: _562  and  _565
REMARK  236  A    between atoms: _565  and  _566
REMARK  237  A    between atoms: _569  and  _571
REMARK  238  A    between atoms: _571  and  _572
REMARK  239  A    between atoms: _571  and  _574
REMARK  240  A    between atoms: _574  and  _575
REMARK  241  A    between atoms: _581  and  _583
REMARK  242  A    between atoms: _583  and  _584
REMARK  243  A    between atoms: _586  and  _588
REMARK  244  A    between atoms: _588  and  _589
REMARK  245  A    between atoms: _588  and  _591
REMARK  246  A    between atoms: _591  and  _592
REMARK  247  A    between atoms: _595  and  _597
REMARK  248  A    between atoms: _597  and  _598
REMARK  249  A    between atoms: _601  and  _603
REMARK  250  A    between atoms: _603  and  _604
REMARK  251  A    between atoms: _603  and  _606
REMARK  252  A    between atoms: _606  and  _607
REMARK  253  A    between atoms: _607  and  _608
REMARK  254  A    between atoms: _608  and  _609
REMARK  255  A    between atoms: _618  and  _620
REMARK  256  A    between atoms: _620  and  _621
REMARK  257  A    between atoms: _620  and  _623
REMARK  258  A    between atoms: _623  and  _624
REMARK  259  A    between atoms: _629  and  _630
REMARK                            x       y       z     vdW  Elec       q    Type
REMARK                         _______ _______ _______ _____ _____    ______ ____
ROOT
ATOM      1  O   HOH     1       3.582   1.176  32.399  0.00  0.00    +0.000 OA
ENDROOT
TORSDOF 0
REMARK  Name = ../refined-set-2016/2yix/2yix_pocket.pdb
REMARK  259 active torsions:
REMARK  status: ('A' for Active; 'I' for Inactive)
REMARK    1  A    between atoms: _1  and  _3
REMARK    2  A    between atoms: _3  and  _4
REMARK    3  A    between atoms: _3  and  _6
REMARK    4  A    between atoms: _9  and  _11
REMARK    5  A    between atoms: _11  and  _12
REMARK    6  A    between atoms: _14  and  _16
REMARK    7  A    between atoms: _16  and  _17
REMARK    8  A    between atoms: _16  and  _19
REMARK    9  A    between atoms: _19  and  _20
REMARK   10  A    between atoms: _22  and  _24
REMARK   11  A    between atoms: _24  and  _25
REMARK   12  A    between atoms: _28  and  _30
REMARK   13  A    between atoms: _30  and  _31
REMARK   14  A    between atoms: _30  and  _33
REMARK   15  A    between atoms: _33  and  _34
REMARK   16  A    between atoms: _39  and  _40
REMARK   17  A    between atoms: _42  and  _44
REMARK   18  A    between atoms: _44  and  _45
REMARK   19  A    between atoms: _47  and  _49
REMARK   20  A    between atoms: _49  and  _50
REMARK   21  A    between atoms: _49  and  _52
REMARK   22  A    between atoms: _52  and  _53
REMARK   23  A    between atoms: _55  and  _57
REMARK   24  A    between atoms: _57  and  _58
REMARK   25  A    between atoms: _57  and  _60
REMARK   26  A    between atoms: _63  and  _65
REMARK   27  A    between atoms: _65  and  _66
REMARK   28  A    between atoms: _65  and  _68
REMARK   29  A    between atoms: _70  and  _72
REMARK   30  A    between atoms: _72  and  _73
REMARK   31  A    between atoms: _76  and  _78
REMARK   32  A    between atoms: _78  and  _79
REMARK   33  A    between atoms: _78  and  _81
REMARK   34  A    between atoms: _81  and  _82
REMARK   35  A    between atoms: _82  and  _83
REMARK   36  A    between atoms: _83  and  _84
REMARK   37  A    between atoms: _93  and  _95
REMARK   38  A    between atoms: _95  and  _96
REMARK   39  A    between atoms: _95  and  _98
REMARK   40  A    between atoms: _101  and  _103
REMARK   41  A    between atoms: _103  and  _104
REMARK   42  A    between atoms: _107  and  _109
REMARK   43  A    between atoms: _109  and  _110
REMARK   44  A    between atoms: _109  and  _112
REMARK   45  A    between atoms: _115  and  _117
REMARK   46  A    between atoms: _117  and  _118
REMARK   47  A    between atoms: _117  and  _120
REMARK   48  A    between atoms: _120  and  _121
REMARK   49  A    between atoms: _121  and  _122
REMARK   50  A    between atoms: _122  and  _123
REMARK   51  A    between atoms: _123  and  _124
REMARK   52  A    between atoms: _128  and  _130
REMARK   53  A    between atoms: _130  and  _131
REMARK   54  A    between atoms: _130  and  _133
REMARK   55  A    between atoms: _133  and  _134
REMARK   56  A    between atoms: _134  and  _135
REMARK   57  A    between atoms: _135  and  _136
REMARK   58  A    between atoms: _136  and  _137
REMARK   59  A    between atoms: _141  and  _143
REMARK   60  A    between atoms: _143  and  _144
REMARK   61  A    between atoms: _143  and  _146
REMARK   62  A    between atoms: _146  and  _147
REMARK   63  A    between atoms: _150  and  _152
REMARK   64  A    between atoms: _152  and  _153
REMARK   65  A    between atoms: _152  and  _155
REMARK   66  A    between atoms: _155  and  _156
REMARK   67  A    between atoms: _156  and  _157
REMARK   68  A    between atoms: _157  and  _158
REMARK   69  A    between atoms: _167  and  _169
REMARK   70  A    between atoms: _169  and  _170
REMARK   71  A    between atoms: _169  and  _172
REMARK   72  A    between atoms: _172  and  _173
REMARK   73  A    between atoms: _173  and  _174
REMARK   74  A    between atoms: _174  and  _175
REMARK   75  A    between atoms: _184  and  _186
REMARK   76  A    between atoms: _186  and  _187
REMARK   77  A    between atoms: _186  and  _189
REMARK   78  A    between atoms: _189  and  _190
REMARK   79  A    between atoms: _190  and  _191
REMARK   80  A    between atoms: _194  and  _196
REMARK   81  A    between atoms: _196  and  _197
REMARK   82  A    between atoms: _196  and  _199
REMARK   83  A    between atoms: _199  and  _200
REMARK   84  A    between atoms: _203  and  _205
REMARK   85  A    between atoms: _205  and  _206
REMARK   86  A    between atoms: _205  and  _208
REMARK   87  A    between atoms: _208  and  _209
REMARK   88  A    between atoms: _209  and  _210
REMARK   89  A    between atoms: _210  and  _211
REMARK   90  A    between atoms: _220  and  _222
REMARK   91  A    between atoms: _222  and  _223
REMARK   92  A    between atoms: _222  and  _225
REMARK   93  A    between atoms: _225  and  _226
REMARK   94  A    between atoms: _229  and  _231
REMARK   95  A    between atoms: _231  and  _232
REMARK   96  A    between atoms: _231  and  _234
REMARK   97  A    between atoms: _234  and  _235
REMARK   98  A    between atoms: _238  and  _240
REMARK   99  A    between atoms: _240  and  _241
REMARK  100  A    between atoms: _240  and  _243
REMARK  101  A    between atoms: _243  and  _244
REMARK  102  A    between atoms: _244  and  _245
REMARK  103  A    between atoms: _245  and  _246
REMARK  104  A    between atoms: _246  and  _247
REMARK  105  A    between atoms: _251  and  _253
REMARK  106  A    between atoms: _253  and  _254
REMARK  107  A    between atoms: _253  and  _256
REMARK  108  A    between atoms: _256  and  _257
REMARK  109  A    between atoms: _262  and  _264
REMARK  110  A    between atoms: _264  and  _265
REMARK  111  A    between atoms: _264  and  _267
REMARK  112  A    between atoms: _267  and  _268
REMARK  113  A    between atoms: _268  and  _269
REMARK  114  A    between atoms: _271  and  _273
REMARK  115  A    between atoms: _273  and  _274
REMARK  116  A    between atoms: _273  and  _276
REMARK  117  A    between atoms: _279  and  _281
REMARK  118  A    between atoms: _281  and  _282
REMARK  119  A    between atoms: _281  and  _284
REMARK  120  A    between atoms: _284  and  _285
REMARK  121  A    between atoms: _288  and  _290
REMARK  122  A    between atoms: _290  and  _291
REMARK  123  A    between atoms: _293  and  _295
REMARK  124  A    between atoms: _295  and  _296
REMARK  125  A    between atoms: _295  and  _298
REMARK  126  A    between atoms: _298  and  _299
REMARK  127  A    between atoms: _302  and  _304
REMARK  128  A    between atoms: _304  and  _305
REMARK  129  A    between atoms: _304  and  _307
REMARK  130  A    between atoms: _307  and  _308
REMARK  131  A    between atoms: _311  and  _313
REMARK  132  A    between atoms: _313  and  _314
REMARK  133  A    between atoms: _313  and  _316
REMARK  134  A    between atoms: _316  and  _317
REMARK  135  A    between atoms: _320  and  _322
REMARK  136  A    between atoms: _322  and  _323
REMARK  137  A    between atoms: _322  and  _325
REMARK  138  A    between atoms: _325  and  _326
REMARK  139  A    between atoms: _331  and  _332
REMARK  140  A    between atoms: _334  and  _336
REMARK  141  A    between atoms: _336  and  _337
REMARK  142  A    between atoms: _336  and  _339
REMARK  143  A    between atoms: _339  and  _340
REMARK  144  A    between atoms: _343  and  _345
REMARK  145  A    between atoms: _345  and  _346
REMARK  146  A    between atoms: _345  and  _348
REMARK  147  A    between atoms: _351  and  _353
REMARK  148  A    between atoms: _353  and  _354
REMARK  149  A    between atoms: _353  and  _356
REMARK  150  A    between atoms: _356  and  _357
REMARK  151  A    between atoms: _360  and  _362
REMARK  152  A    between atoms: _362  and  _363
REMARK  153  A    between atoms: _362  and  _365
REMARK  154  A    between atoms: _365  and  _366
REMARK  155  A    between atoms: _371  and  _373
REMARK  156  A    between atoms: _373  and  _374
REMARK  157  A    between atoms: _373  and  _376
REMARK  158  A    between atoms: _376  and  _377
REMARK  159  A    between atoms: _380  and  _382
REMARK  160  A    between atoms: _382  and  _383
REMARK  161  A    between atoms: _382  and  _385
REMARK  162  A    between atoms: _385  and  _386
REMARK  163  A    between atoms: _386  and  _387
REMARK  164  A    between atoms: _389  and  _391
REMARK  165  A    between atoms: _391  and  _392
REMARK  166  A    between atoms: _394  and  _396
REMARK  167  A    between atoms: _396  and  _397
REMARK  168  A    between atoms: _400  and  _402
REMARK  169  A    between atoms: _402  and  _403
REMARK  170  A    between atoms: _402  and  _405
REMARK  171  A    between atoms: _405  and  _406
REMARK  172  A    between atoms: _409  and  _411
REMARK  173  A    between atoms: _411  and  _412
REMARK  174  A    between atoms: _411  and  _414
REMARK  175  A    between atoms: _414  and  _415
REMARK  176  A    between atoms: _418  and  _420
REMARK  177  A    between atoms: _420  and  _421
REMARK  178  A    between atoms: _420  and  _423
REMARK  179  A    between atoms: _423  and  _424
REMARK  180  A    between atoms: _429  and  _431
REMARK  181  A    between atoms: _431  and  _432
REMARK  182  A    between atoms: _431  and  _434
REMARK  183  A    between atoms: _434  and  _435
REMARK  184  A    between atoms: _440  and  _442
REMARK  185  A    between atoms: _442  and  _443
REMARK  186  A    between atoms: _442  and  _445
REMARK  187  A    between atoms: _445  and  _446
REMARK  188  A    between atoms: _449  and  _451
REMARK  189  A    between atoms: _451  and  _452
REMARK  190  A    between atoms: _451  and  _454
REMARK  191  A    between atoms: _454  and  _455
REMARK  192  A    between atoms: _458  and  _460
REMARK  193  A    between atoms: _460  and  _461
REMARK  194  A    between atoms: _460  and  _463
REMARK  195  A    between atoms: _463  and  _464
REMARK  196  A    between atoms: _470  and  _471
REMARK  197  A    between atoms: _476  and  _478
REMARK  198  A    between atoms: _478  and  _479
REMARK  199  A    between atoms: _478  and  _481
REMARK  200  A    between atoms: _481  and  _482
REMARK  201  A    between atoms: _484  and  _486
REMARK  202  A    between atoms: _486  and  _487
REMARK  203  A    between atoms: _486  and  _489
REMARK  204  A    between atoms: _489  and  _490
REMARK  205  A    between atoms: _495  and  _497
REMARK  206  A    between atoms: _497  and  _498
REMARK  207  A    between atoms: _497  and  _500
REMARK  208  A    between atoms: _500  and  _501
REMARK  209  A    between atoms: _504  and  _506
REMARK  210  A    between atoms: _506  and  _507
REMARK  211  A    between atoms: _510  and  _512
REMARK  212  A    between atoms: _512  and  _513
REMARK  213  A    between atoms: _512  and  _515
REMARK  214  A    between atoms: _518  and  _520
REMARK  215  A    between atoms: _520  and  _521
REMARK  216  A    between atoms: _520  and  _523
REMARK  217  A    between atoms: _523  and  _524
REMARK  218  A    between atoms: _529  and  _531
REMARK  219  A    between atoms: _531  and  _532
REMARK  220  A    between atoms: _531  and  _534
REMARK  221  A    between atoms: _534  and  _535
REMARK  222  A    between atoms: _535  and  _536
REMARK  223  A    between atoms: _536  and  _537
REMARK  224  A    between atoms: _537  and  _538
REMARK  225  A    between atoms: _542  and  _544
REMARK  226  A    between atoms: _544  and  _545
REMARK  227  A    between atoms: _544  and  _547
REMARK  228  A    between atoms: _547  and  _548
REMARK  229  A    between atoms: _551  and  _553
REMARK  230  A    between atoms: _553  and  _554
REMARK  231  A    between atoms: _553  and  _556
REMARK  232  A    between atoms: _556  and  _557
REMARK  233  A    between atoms: _560  and  _562
REMARK  234  A    between atoms: _562  and  _563
REMARK  235  A    between atoms: _562  and  _565
REMARK  236  A    between atoms: _565  and  _566
REMARK  237  A    between atoms: _569  and  _571
REMARK  238  A    between atoms: _571  and  _572
REMARK  239  A    between atoms: _571  and  _574
REMARK  240  A    between atoms: _574  and  _575
REMARK  241  A    between atoms: _581  and  _583
REMARK  242  A    between atoms: _583  and  _584
REMARK  243  A    between atoms: _586  and  _588
REMARK  244  A    between atoms: _588  and  _589
REMARK  245  A    between atoms: _588  and  _591
REMARK  246  A    between atoms: _591  and  _592
REMARK  247  A    between atoms: _595  and  _597
REMARK  248  A    between atoms: _597  and  _598
REMARK  249  A    between atoms: _601  and  _603
REMARK  250  A    between atoms: _603  and  _604
REMARK  251  A    between atoms: _603  and  _606
REMARK  252  A    between atoms: _606  and  _607
REMARK  253  A    between atoms: _607  and  _608
REMARK  254  A    between atoms: _608  and  _609
REMARK  255  A    between atoms: _618  and  _620
REMARK  256  A    between atoms: _620  and  _621
REMARK  257  A    between atoms: _620  and  _623
REMARK  258  A    between atoms: _623  and  _624
REMARK  259  A    between atoms: _629  and  _630
REMARK                            x       y       z     vdW  Elec       q    Type
REMARK                         _______ _______ _______ _____ _____    ______ ____
ROOT
ATOM      1  O   HOH     1      10.034  21.271  30.213  0.00  0.00    +0.000 OA
ENDROOT
TORSDOF 0
REMARK  Name = ../refined-set-2016/2yix/2yix_pocket.pdb
REMARK  259 active torsions:
REMARK  status: ('A' for Active; 'I' for Inactive)
REMARK    1  A    between atoms: _1  and  _3
REMARK    2  A    between atoms: _3  and  _4
REMARK    3  A    between atoms: _3  and  _6
REMARK    4  A    between atoms: _9  and  _11
REMARK    5  A    between atoms: _11  and  _12
REMARK    6  A    between atoms: _14  and  _16
REMARK    7  A    between atoms: _16  and  _17
REMARK    8  A    between atoms: _16  and  _19
REMARK    9  A    between atoms: _19  and  _20
REMARK   10  A    between atoms: _22  and  _24
REMARK   11  A    between atoms: _24  and  _25
REMARK   12  A    between atoms: _28  and  _30
REMARK   13  A    between atoms: _30  and  _31
REMARK   14  A    between atoms: _30  and  _33
REMARK   15  A    between atoms: _33  and  _34
REMARK   16  A    between atoms: _39  and  _40
REMARK   17  A    between atoms: _42  and  _44
REMARK   18  A    between atoms: _44  and  _45
REMARK   19  A    between atoms: _47  and  _49
REMARK   20  A    between atoms: _49  and  _50
REMARK   21  A    between atoms: _49  and  _52
REMARK   22  A    between atoms: _52  and  _53
REMARK   23  A    between atoms: _55  and  _57
REMARK   24  A    between atoms: _57  and  _58
REMARK   25  A    between atoms: _57  and  _60
REMARK   26  A    between atoms: _63  and  _65
REMARK   27  A    between atoms: _65  and  _66
REMARK   28  A    between atoms: _65  and  _68
REMARK   29  A    between atoms: _70  and  _72
REMARK   30  A    between atoms: _72  and  _73
REMARK   31  A    between atoms: _76  and  _78
REMARK   32  A    between atoms: _78  and  _79
REMARK   33  A    between atoms: _78  and  _81
REMARK   34  A    between atoms: _81  and  _82
REMARK   35  A    between atoms: _82  and  _83
REMARK   36  A    between atoms: _83  and  _84
REMARK   37  A    between atoms: _93  and  _95
REMARK   38  A    between atoms: _95  and  _96
REMARK   39  A    between atoms: _95  and  _98
REMARK   40  A    between atoms: _101  and  _103
REMARK   41  A    between atoms: _103  and  _104
REMARK   42  A    between atoms: _107  and  _109
REMARK   43  A    between atoms: _109  and  _110
REMARK   44  A    between atoms: _109  and  _112
REMARK   45  A    between atoms: _115  and  _117
REMARK   46  A    between atoms: _117  and  _118
REMARK   47  A    between atoms: _117  and  _120
REMARK   48  A    between atoms: _120  and  _121
REMARK   49  A    between atoms: _121  and  _122
REMARK   50  A    between atoms: _122  and  _123
REMARK   51  A    between atoms: _123  and  _124
REMARK   52  A    between atoms: _128  and  _130
REMARK   53  A    between atoms: _130  and  _131
REMARK   54  A    between atoms: _130  and  _133
REMARK   55  A    between atoms: _133  and  _134
REMARK   56  A    between atoms: _134  and  _135
REMARK   57  A    between atoms: _135  and  _136
REMARK   58  A    between atoms: _136  and  _137
REMARK   59  A    between atoms: _141  and  _143
REMARK   60  A    between atoms: _143  and  _144
REMARK   61  A    between atoms: _143  and  _146
REMARK   62  A    between atoms: _146  and  _147
REMARK   63  A    between atoms: _150  and  _152
REMARK   64  A    between atoms: _152  and  _153
REMARK   65  A    between atoms: _152  and  _155
REMARK   66  A    between atoms: _155  and  _156
REMARK   67  A    between atoms: _156  and  _157
REMARK   68  A    between atoms: _157  and  _158
REMARK   69  A    between atoms: _167  and  _169
REMARK   70  A    between atoms: _169  and  _170
REMARK   71  A    between atoms: _169  and  _172
REMARK   72  A    between atoms: _172  and  _173
REMARK   73  A    between atoms: _173  and  _174
REMARK   74  A    between atoms: _174  and  _175
REMARK   75  A    between atoms: _184  and  _186
REMARK   76  A    between atoms: _186  and  _187
REMARK   77  A    between atoms: _186  and  _189
REMARK   78  A    between atoms: _189  and  _190
REMARK   79  A    between atoms: _190  and  _191
REMARK   80  A    between atoms: _194  and  _196
REMARK   81  A    between atoms: _196  and  _197
REMARK   82  A    between atoms: _196  and  _199
REMARK   83  A    between atoms: _199  and  _200
REMARK   84  A    between atoms: _203  and  _205
REMARK   85  A    between atoms: _205  and  _206
REMARK   86  A    between atoms: _205  and  _208
REMARK   87  A    between atoms: _208  and  _209
REMARK   88  A    between atoms: _209  and  _210
REMARK   89  A    between atoms: _210  and  _211
REMARK   90  A    between atoms: _220  and  _222
REMARK   91  A    between atoms: _222  and  _223
REMARK   92  A    between atoms: _222  and  _225
REMARK   93  A    between atoms: _225  and  _226
REMARK   94  A    between atoms: _229  and  _231
REMARK   95  A    between atoms: _231  and  _232
REMARK   96  A    between atoms: _231  and  _234
REMARK   97  A    between atoms: _234  and  _235
REMARK   98  A    between atoms: _238  and  _240
REMARK   99  A    between atoms: _240  and  _241
REMARK  100  A    between atoms: _240  and  _243
REMARK  101  A    between atoms: _243  and  _244
REMARK  102  A    between atoms: _244  and  _245
REMARK  103  A    between atoms: _245  and  _246
REMARK  104  A    between atoms: _246  and  _247
REMARK  105  A    between atoms: _251  and  _253
REMARK  106  A    between atoms: _253  and  _254
REMARK  107  A    between atoms: _253  and  _256
REMARK  108  A    between atoms: _256  and  _257
REMARK  109  A    between atoms: _262  and  _264
REMARK  110  A    between atoms: _264  and  _265
REMARK  111  A    between atoms: _264  and  _267
REMARK  112  A    between atoms: _267  and  _268
REMARK  113  A    between atoms: _268  and  _269
REMARK  114  A    between atoms: _271  and  _273
REMARK  115  A    between atoms: _273  and  _274
REMARK  116  A    between atoms: _273  and  _276
REMARK  117  A    between atoms: _279  and  _281
REMARK  118  A    between atoms: _281  and  _282
REMARK  119  A    between atoms: _281  and  _284
REMARK  120  A    between atoms: _284  and  _285
REMARK  121  A    between atoms: _288  and  _290
REMARK  122  A    between atoms: _290  and  _291
REMARK  123  A    between atoms: _293  and  _295
REMARK  124  A    between atoms: _295  and  _296
REMARK  125  A    between atoms: _295  and  _298
REMARK  126  A    between atoms: _298  and  _299
REMARK  127  A    between atoms: _302  and  _304
REMARK  128  A    between atoms: _304  and  _305
REMARK  129  A    between atoms: _304  and  _307
REMARK  130  A    between atoms: _307  and  _308
REMARK  131  A    between atoms: _311  and  _313
REMARK  132  A    between atoms: _313  and  _314
REMARK  133  A    between atoms: _313  and  _316
REMARK  134  A    between atoms: _316  and  _317
REMARK  135  A    between atoms: _320  and  _322
REMARK  136  A    between atoms: _322  and  _323
REMARK  137  A    between atoms: _322  and  _325
REMARK  138  A    between atoms: _325  and  _326
REMARK  139  A    between atoms: _331  and  _332
REMARK  140  A    between atoms: _334  and  _336
REMARK  141  A    between atoms: _336  and  _337
REMARK  142  A    between atoms: _336  and  _339
REMARK  143  A    between atoms: _339  and  _340
REMARK  144  A    between atoms: _343  and  _345
REMARK  145  A    between atoms: _345  and  _346
REMARK  146  A    between atoms: _345  and  _348
REMARK  147  A    between atoms: _351  and  _353
REMARK  148  A    between atoms: _353  and  _354
REMARK  149  A    between atoms: _353  and  _356
REMARK  150  A    between atoms: _356  and  _357
REMARK  151  A    between atoms: _360  and  _362
REMARK  152  A    between atoms: _362  and  _363
REMARK  153  A    between atoms: _362  and  _365
REMARK  154  A    between atoms: _365  and  _366
REMARK  155  A    between atoms: _371  and  _373
REMARK  156  A    between atoms: _373  and  _374
REMARK  157  A    between atoms: _373  and  _376
REMARK  158  A    between atoms: _376  and  _377
REMARK  159  A    between atoms: _380  and  _382
REMARK  160  A    between atoms: _382  and  _383
REMARK  161  A    between atoms: _382  and  _385
REMARK  162  A    between atoms: _385  and  _386
REMARK  163  A    between atoms: _386  and  _387
REMARK  164  A    between atoms: _389  and  _391
REMARK  165  A    between atoms: _391  and  _392
REMARK  166  A    between atoms: _394  and  _396
REMARK  167  A    between atoms: _396  and  _397
REMARK  168  A    between atoms: _400  and  _402
REMARK  169  A    between atoms: _402  and  _403
REMARK  170  A    between atoms: _402  and  _405
REMARK  171  A    between atoms: _405  and  _406
REMARK  172  A    between atoms: _409  and  _411
REMARK  173  A    between atoms: _411  and  _412
REMARK  174  A    between atoms: _411  and  _414
REMARK  175  A    between atoms: _414  and  _415
REMARK  176  A    between atoms: _418  and  _420
REMARK  177  A    between atoms: _420  and  _421
REMARK  178  A    between atoms: _420  and  _423
REMARK  179  A    between atoms: _423  and  _424
REMARK  180  A    between atoms: _429  and  _431
REMARK  181  A    between atoms: _431  and  _432
REMARK  182  A    between atoms: _431  and  _434
REMARK  183  A    between atoms: _434  and  _435
REMARK  184  A    between atoms: _440  and  _442
REMARK  185  A    between atoms: _442  and  _443
REMARK  186  A    between atoms: _442  and  _445
REMARK  187  A    between atoms: _445  and  _446
REMARK  188  A    between atoms: _449  and  _451
REMARK  189  A    between atoms: _451  and  _452
REMARK  190  A    between atoms: _451  and  _454
REMARK  191  A    between atoms: _454  and  _455
REMARK  192  A    between atoms: _458  and  _460
REMARK  193  A    between atoms: _460  and  _461
REMARK  194  A    between atoms: _460  and  _463
REMARK  195  A    between atoms: _463  and  _464
REMARK  196  A    between atoms: _470  and  _471
REMARK  197  A    between atoms: _476  and  _478
REMARK  198  A    between atoms: _478  and  _479
REMARK  199  A    between atoms: _478  and  _481
REMARK  200  A    between atoms: _481  and  _482
REMARK  201  A    between atoms: _484  and  _486
REMARK  202  A    between atoms: _486  and  _487
REMARK  203  A    between atoms: _486  and  _489
REMARK  204  A    between atoms: _489  and  _490
REMARK  205  A    between atoms: _495  and  _497
REMARK  206  A    between atoms: _497  and  _498
REMARK  207  A    between atoms: _497  and  _500
REMARK  208  A    between atoms: _500  and  _501
REMARK  209  A    between atoms: _504  and  _506
REMARK  210  A    between atoms: _506  and  _507
REMARK  211  A    between atoms: _510  and  _512
REMARK  212  A    between atoms: _512  and  _513
REMARK  213  A    between atoms: _512  and  _515
REMARK  214  A    between atoms: _518  and  _520
REMARK  215  A    between atoms: _520  and  _521
REMARK  216  A    between atoms: _520  and  _523
REMARK  217  A    between atoms: _523  and  _524
REMARK  218  A    between atoms: _529  and  _531
REMARK  219  A    between atoms: _531  and  _532
REMARK  220  A    between atoms: _531  and  _534
REMARK  221  A    between atoms: _534  and  _535
REMARK  222  A    between atoms: _535  and  _536
REMARK  223  A    between atoms: _536  and  _537
REMARK  224  A    between atoms: _537  and  _538
REMARK  225  A    between atoms: _542  and  _544
REMARK  226  A    between atoms: _544  and  _545
REMARK  227  A    between atoms: _544  and  _547
REMARK  228  A    between atoms: _547  and  _548
REMARK  229  A    between atoms: _551  and  _553
REMARK  230  A    between atoms: _553  and  _554
REMARK  231  A    between atoms: _553  and  _556
REMARK  232  A    between atoms: _556  and  _557
REMARK  233  A    between atoms: _560  and  _562
REMARK  234  A    between atoms: _562  and  _563
REMARK  235  A    between atoms: _562  and  _565
REMARK  236  A    between atoms: _565  and  _566
REMARK  237  A    between atoms: _569  and  _571
REMARK  238  A    between atoms: _571  and  _572
REMARK  239  A    between atoms: _571  and  _574
REMARK  240  A    between atoms: _574  and  _575
REMARK  241  A    between atoms: _581  and  _583
REMARK  242  A    between atoms: _583  and  _584
REMARK  243  A    between atoms: _586  and  _588
REMARK  244  A    between atoms: _588  and  _589
REMARK  245  A    between atoms: _588  and  _591
REMARK  246  A    between atoms: _591  and  _592
REMARK  247  A    between atoms: _595  and  _597
REMARK  248  A    between atoms: _597  and  _598
REMARK  249  A    between atoms: _601  and  _603
REMARK  250  A    between atoms: _603  and  _604
REMARK  251  A    between atoms: _603  and  _606
REMARK  252  A    between atoms: _606  and  _607
REMARK  253  A    between atoms: _607  and  _608
REMARK  254  A    between atoms: _608  and  _609
REMARK  255  A    between atoms: _618  and  _620
REMARK  256  A    between atoms: _620  and  _621
REMARK  257  A    between atoms: _620  and  _623
REMARK  258  A    between atoms: _623  and  _624
REMARK  259  A    between atoms: _629  and  _630
REMARK                            x       y       z     vdW  Elec       q    Type
REMARK                         _______ _______ _______ _____ _____    ______ ____
ROOT
ATOM      1  O   HOH     1      -1.110   1.337  29.415  0.00  0.00    +0.000 OA
ENDROOT
TORSDOF 0
REMARK  Name = ../refined-set-2016/2yix/2yix_pocket.pdb
REMARK  259 active torsions:
REMARK  status: ('A' for Active; 'I' for Inactive)
REMARK    1  A    between atoms: _1  and  _3
REMARK    2  A    between atoms: _3  and  _4
REMARK    3  A    between atoms: _3  and  _6
REMARK    4  A    between atoms: _9  and  _11
REMARK    5  A    between atoms: _11  and  _12
REMARK    6  A    between atoms: _14  and  _16
REMARK    7  A    between atoms: _16  and  _17
REMARK    8  A    between atoms: _16  and  _19
REMARK    9  A    between atoms: _19  and  _20
REMARK   10  A    between atoms: _22  and  _24
REMARK   11  A    between atoms: _24  and  _25
REMARK   12  A    between atoms: _28  and  _30
REMARK   13  A    between atoms: _30  and  _31
REMARK   14  A    between atoms: _30  and  _33
REMARK   15  A    between atoms: _33  and  _34
REMARK   16  A    between atoms: _39  and  _40
REMARK   17  A    between atoms: _42  and  _44
REMARK   18  A    between atoms: _44  and  _45
REMARK   19  A    between atoms: _47  and  _49
REMARK   20  A    between atoms: _49  and  _50
REMARK   21  A    between atoms: _49  and  _52
REMARK   22  A    between atoms: _52  and  _53
REMARK   23  A    between atoms: _55  and  _57
REMARK   24  A    between atoms: _57  and  _58
REMARK   25  A    between atoms: _57  and  _60
REMARK   26  A    between atoms: _63  and  _65
REMARK   27  A    between atoms: _65  and  _66
REMARK   28  A    between atoms: _65  and  _68
REMARK   29  A    between atoms: _70  and  _72
REMARK   30  A    between atoms: _72  and  _73
REMARK   31  A    between atoms: _76  and  _78
REMARK   32  A    between atoms: _78  and  _79
REMARK   33  A    between atoms: _78  and  _81
REMARK   34  A    between atoms: _81  and  _82
REMARK   35  A    between atoms: _82  and  _83
REMARK   36  A    between atoms: _83  and  _84
REMARK   37  A    between atoms: _93  and  _95
REMARK   38  A    between atoms: _95  and  _96
REMARK   39  A    between atoms: _95  and  _98
REMARK   40  A    between atoms: _101  and  _103
REMARK   41  A    between atoms: _103  and  _104
REMARK   42  A    between atoms: _107  and  _109
REMARK   43  A    between atoms: _109  and  _110
REMARK   44  A    between atoms: _109  and  _112
REMARK   45  A    between atoms: _115  and  _117
REMARK   46  A    between atoms: _117  and  _118
REMARK   47  A    between atoms: _117  and  _120
REMARK   48  A    between atoms: _120  and  _121
REMARK   49  A    between atoms: _121  and  _122
REMARK   50  A    between atoms: _122  and  _123
REMARK   51  A    between atoms: _123  and  _124
REMARK   52  A    between atoms: _128  and  _130
REMARK   53  A    between atoms: _130  and  _131
REMARK   54  A    between atoms: _130  and  _133
REMARK   55  A    between atoms: _133  and  _134
REMARK   56  A    between atoms: _134  and  _135
REMARK   57  A    between atoms: _135  and  _136
REMARK   58  A    between atoms: _136  and  _137
REMARK   59  A    between atoms: _141  and  _143
REMARK   60  A    between atoms: _143  and  _144
REMARK   61  A    between atoms: _143  and  _146
REMARK   62  A    between atoms: _146  and  _147
REMARK   63  A    between atoms: _150  and  _152
REMARK   64  A    between atoms: _152  and  _153
REMARK   65  A    between atoms: _152  and  _155
REMARK   66  A    between atoms: _155  and  _156
REMARK   67  A    between atoms: _156  and  _157
REMARK   68  A    between atoms: _157  and  _158
REMARK   69  A    between atoms: _167  and  _169
REMARK   70  A    between atoms: _169  and  _170
REMARK   71  A    between atoms: _169  and  _172
REMARK   72  A    between atoms: _172  and  _173
REMARK   73  A    between atoms: _173  and  _174
REMARK   74  A    between atoms: _174  and  _175
REMARK   75  A    between atoms: _184  and  _186
REMARK   76  A    between atoms: _186  and  _187
REMARK   77  A    between atoms: _186  and  _189
REMARK   78  A    between atoms: _189  and  _190
REMARK   79  A    between atoms: _190  and  _191
REMARK   80  A    between atoms: _194  and  _196
REMARK   81  A    between atoms: _196  and  _197
REMARK   82  A    between atoms: _196  and  _199
REMARK   83  A    between atoms: _199  and  _200
REMARK   84  A    between atoms: _203  and  _205
REMARK   85  A    between atoms: _205  and  _206
REMARK   86  A    between atoms: _205  and  _208
REMARK   87  A    between atoms: _208  and  _209
REMARK   88  A    between atoms: _209  and  _210
REMARK   89  A    between atoms: _210  and  _211
REMARK   90  A    between atoms: _220  and  _222
REMARK   91  A    between atoms: _222  and  _223
REMARK   92  A    between atoms: _222  and  _225
REMARK   93  A    between atoms: _225  and  _226
REMARK   94  A    between atoms: _229  and  _231
REMARK   95  A    between atoms: _231  and  _232
REMARK   96  A    between atoms: _231  and  _234
REMARK   97  A    between atoms: _234  and  _235
REMARK   98  A    between atoms: _238  and  _240
REMARK   99  A    between atoms: _240  and  _241
REMARK  100  A    between atoms: _240  and  _243
REMARK  101  A    between atoms: _243  and  _244
REMARK  102  A    between atoms: _244  and  _245
REMARK  103  A    between atoms: _245  and  _246
REMARK  104  A    between atoms: _246  and  _247
REMARK  105  A    between atoms: _251  and  _253
REMARK  106  A    between atoms: _253  and  _254
REMARK  107  A    between atoms: _253  and  _256
REMARK  108  A    between atoms: _256  and  _257
REMARK  109  A    between atoms: _262  and  _264
REMARK  110  A    between atoms: _264  and  _265
REMARK  111  A    between atoms: _264  and  _267
REMARK  112  A    between atoms: _267  and  _268
REMARK  113  A    between atoms: _268  and  _269
REMARK  114  A    between atoms: _271  and  _273
REMARK  115  A    between atoms: _273  and  _274
REMARK  116  A    between atoms: _273  and  _276
REMARK  117  A    between atoms: _279  and  _281
REMARK  118  A    between atoms: _281  and  _282
REMARK  119  A    between atoms: _281  and  _284
REMARK  120  A    between atoms: _284  and  _285
REMARK  121  A    between atoms: _288  and  _290
REMARK  122  A    between atoms: _290  and  _291
REMARK  123  A    between atoms: _293  and  _295
REMARK  124  A    between atoms: _295  and  _296
REMARK  125  A    between atoms: _295  and  _298
REMARK  126  A    between atoms: _298  and  _299
REMARK  127  A    between atoms: _302  and  _304
REMARK  128  A    between atoms: _304  and  _305
REMARK  129  A    between atoms: _304  and  _307
REMARK  130  A    between atoms: _307  and  _308
REMARK  131  A    between atoms: _311  and  _313
REMARK  132  A    between atoms: _313  and  _314
REMARK  133  A    between atoms: _313  and  _316
REMARK  134  A    between atoms: _316  and  _317
REMARK  135  A    between atoms: _320  and  _322
REMARK  136  A    between atoms: _322  and  _323
REMARK  137  A    between atoms: _322  and  _325
REMARK  138  A    between atoms: _325  and  _326
REMARK  139  A    between atoms: _331  and  _332
REMARK  140  A    between atoms: _334  and  _336
REMARK  141  A    between atoms: _336  and  _337
REMARK  142  A    between atoms: _336  and  _339
REMARK  143  A    between atoms: _339  and  _340
REMARK  144  A    between atoms: _343  and  _345
REMARK  145  A    between atoms: _345  and  _346
REMARK  146  A    between atoms: _345  and  _348
REMARK  147  A    between atoms: _351  and  _353
REMARK  148  A    between atoms: _353  and  _354
REMARK  149  A    between atoms: _353  and  _356
REMARK  150  A    between atoms: _356  and  _357
REMARK  151  A    between atoms: _360  and  _362
REMARK  152  A    between atoms: _362  and  _363
REMARK  153  A    between atoms: _362  and  _365
REMARK  154  A    between atoms: _365  and  _366
REMARK  155  A    between atoms: _371  and  _373
REMARK  156  A    between atoms: _373  and  _374
REMARK  157  A    between atoms: _373  and  _376
REMARK  158  A    between atoms: _376  and  _377
REMARK  159  A    between atoms: _380  and  _382
REMARK  160  A    between atoms: _382  and  _383
REMARK  161  A    between atoms: _382  and  _385
REMARK  162  A    between atoms: _385  and  _386
REMARK  163  A    between atoms: _386  and  _387
REMARK  164  A    between atoms: _389  and  _391
REMARK  165  A    between atoms: _391  and  _392
REMARK  166  A    between atoms: _394  and  _396
REMARK  167  A    between atoms: _396  and  _397
REMARK  168  A    between atoms: _400  and  _402
REMARK  169  A    between atoms: _402  and  _403
REMARK  170  A    between atoms: _402  and  _405
REMARK  171  A    between atoms: _405  and  _406
REMARK  172  A    between atoms: _409  and  _411
REMARK  173  A    between atoms: _411  and  _412
REMARK  174  A    between atoms: _411  and  _414
REMARK  175  A    between atoms: _414  and  _415
REMARK  176  A    between atoms: _418  and  _420
REMARK  177  A    between atoms: _420  and  _421
REMARK  178  A    between atoms: _420  and  _423
REMARK  179  A    between atoms: _423  and  _424
REMARK  180  A    between atoms: _429  and  _431
REMARK  181  A    between atoms: _431  and  _432
REMARK  182  A    between atoms: _431  and  _434
REMARK  183  A    between atoms: _434  and  _435
REMARK  184  A    between atoms: _440  and  _442
REMARK  185  A    between atoms: _442  and  _443
REMARK  186  A    between atoms: _442  and  _445
REMARK  187  A    between atoms: _445  and  _446
REMARK  188  A    between atoms: _449  and  _451
REMARK  189  A    between atoms: _451  and  _452
REMARK  190  A    between atoms: _451  and  _454
REMARK  191  A    between atoms: _454  and  _455
REMARK  192  A    between atoms: _458  and  _460
REMARK  193  A    between atoms: _460  and  _461
REMARK  194  A    between atoms: _460  and  _463
REMARK  195  A    between atoms: _463  and  _464
REMARK  196  A    between atoms: _470  and  _471
REMARK  197  A    between atoms: _476  and  _478
REMARK  198  A    between atoms: _478  and  _479
REMARK  199  A    between atoms: _478  and  _481
REMARK  200  A    between atoms: _481  and  _482
REMARK  201  A    between atoms: _484  and  _486
REMARK  202  A    between atoms: _486  and  _487
REMARK  203  A    between atoms: _486  and  _489
REMARK  204  A    between atoms: _489  and  _490
REMARK  205  A    between atoms: _495  and  _497
REMARK  206  A    between atoms: _497  and  _498
REMARK  207  A    between atoms: _497  and  _500
REMARK  208  A    between atoms: _500  and  _501
REMARK  209  A    between atoms: _504  and  _506
REMARK  210  A    between atoms: _506  and  _507
REMARK  211  A    between atoms: _510  and  _512
REMARK  212  A    between atoms: _512  and  _513
REMARK  213  A    between atoms: _512  and  _515
REMARK  214  A    between atoms: _518  and  _520
REMARK  215  A    between atoms: _520  and  _521
REMARK  216  A    between atoms: _520  and  _523
REMARK  217  A    between atoms: _523  and  _524
REMARK  218  A    between atoms: _529  and  _531
REMARK  219  A    between atoms: _531  and  _532
REMARK  220  A    between atoms: _531  and  _534
REMARK  221  A    between atoms: _534  and  _535
REMARK  222  A    between atoms: _535  and  _536
REMARK  223  A    between atoms: _536  and  _537
REMARK  224  A    between atoms: _537  and  _538
REMARK  225  A    between atoms: _542  and  _544
REMARK  226  A    between atoms: _544  and  _545
REMARK  227  A    between atoms: _544  and  _547
REMARK  228  A    between atoms: _547  and  _548
REMARK  229  A    between atoms: _551  and  _553
REMARK  230  A    between atoms: _553  and  _554
REMARK  231  A    between atoms: _553  and  _556
REMARK  232  A    between atoms: _556  and  _557
REMARK  233  A    between atoms: _560  and  _562
REMARK  234  A    between atoms: _562  and  _563
REMARK  235  A    between atoms: _562  and  _565
REMARK  236  A    between atoms: _565  and  _566
REMARK  237  A    between atoms: _569  and  _571
REMARK  238  A    between atoms: _571  and  _572
REMARK  239  A    between atoms: _571  and  _574
REMARK  240  A    between atoms: _574  and  _575
REMARK  241  A    between atoms: _581  and  _583
REMARK  242  A    between atoms: _583  and  _584
REMARK  243  A    between atoms: _586  and  _588
REMARK  244  A    between atoms: _588  and  _589
REMARK  245  A    between atoms: _588  and  _591
REMARK  246  A    between atoms: _591  and  _592
REMARK  247  A    between atoms: _595  and  _597
REMARK  248  A    between atoms: _597  and  _598
REMARK  249  A    between atoms: _601  and  _603
REMARK  250  A    between atoms: _603  and  _604
REMARK  251  A    between atoms: _603  and  _606
REMARK  252  A    between atoms: _606  and  _607
REMARK  253  A    between atoms: _607  and  _608
REMARK  254  A    between atoms: _608  and  _609
REMARK  255  A    between atoms: _618  and  _620
REMARK  256  A    between atoms: _620  and  _621
REMARK  257  A    between atoms: _620  and  _623
REMARK  258  A    between atoms: _623  and  _624
REMARK  259  A    between atoms: _629  and  _630
REMARK                            x       y       z     vdW  Elec       q    Type
REMARK                         _______ _______ _______ _____ _____    ______ ____
ROOT
ATOM      1  O   HOH     1      -6.500   3.367  32.596  0.00  0.00    +0.000 OA
ENDROOT
TORSDOF 0
REMARK  Name = ../refined-set-2016/2yix/2yix_pocket.pdb
REMARK  259 active torsions:
REMARK  status: ('A' for Active; 'I' for Inactive)
REMARK    1  A    between atoms: _1  and  _3
REMARK    2  A    between atoms: _3  and  _4
REMARK    3  A    between atoms: _3  and  _6
REMARK    4  A    between atoms: _9  and  _11
REMARK    5  A    between atoms: _11  and  _12
REMARK    6  A    between atoms: _14  and  _16
REMARK    7  A    between atoms: _16  and  _17
REMARK    8  A    between atoms: _16  and  _19
REMARK    9  A    between atoms: _19  and  _20
REMARK   10  A    between atoms: _22  and  _24
REMARK   11  A    between atoms: _24  and  _25
REMARK   12  A    between atoms: _28  and  _30
REMARK   13  A    between atoms: _30  and  _31
REMARK   14  A    between atoms: _30  and  _33
REMARK   15  A    between atoms: _33  and  _34
REMARK   16  A    between atoms: _39  and  _40
REMARK   17  A    between atoms: _42  and  _44
REMARK   18  A    between atoms: _44  and  _45
REMARK   19  A    between atoms: _47  and  _49
REMARK   20  A    between atoms: _49  and  _50
REMARK   21  A    between atoms: _49  and  _52
REMARK   22  A    between atoms: _52  and  _53
REMARK   23  A    between atoms: _55  and  _57
REMARK   24  A    between atoms: _57  and  _58
REMARK   25  A    between atoms: _57  and  _60
REMARK   26  A    between atoms: _63  and  _65
REMARK   27  A    between atoms: _65  and  _66
REMARK   28  A    between atoms: _65  and  _68
REMARK   29  A    between atoms: _70  and  _72
REMARK   30  A    between atoms: _72  and  _73
REMARK   31  A    between atoms: _76  and  _78
REMARK   32  A    between atoms: _78  and  _79
REMARK   33  A    between atoms: _78  and  _81
REMARK   34  A    between atoms: _81  and  _82
REMARK   35  A    between atoms: _82  and  _83
REMARK   36  A    between atoms: _83  and  _84
REMARK   37  A    between atoms: _93  and  _95
REMARK   38  A    between atoms: _95  and  _96
REMARK   39  A    between atoms: _95  and  _98
REMARK   40  A    between atoms: _101  and  _103
REMARK   41  A    between atoms: _103  and  _104
REMARK   42  A    between atoms: _107  and  _109
REMARK   43  A    between atoms: _109  and  _110
REMARK   44  A    between atoms: _109  and  _112
REMARK   45  A    between atoms: _115  and  _117
REMARK   46  A    between atoms: _117  and  _118
REMARK   47  A    between atoms: _117  and  _120
REMARK   48  A    between atoms: _120  and  _121
REMARK   49  A    between atoms: _121  and  _122
REMARK   50  A    between atoms: _122  and  _123
REMARK   51  A    between atoms: _123  and  _124
REMARK   52  A    between atoms: _128  and  _130
REMARK   53  A    between atoms: _130  and  _131
REMARK   54  A    between atoms: _130  and  _133
REMARK   55  A    between atoms: _133  and  _134
REMARK   56  A    between atoms: _134  and  _135
REMARK   57  A    between atoms: _135  and  _136
REMARK   58  A    between atoms: _136  and  _137
REMARK   59  A    between atoms: _141  and  _143
REMARK   60  A    between atoms: _143  and  _144
REMARK   61  A    between atoms: _143  and  _146
REMARK   62  A    between atoms: _146  and  _147
REMARK   63  A    between atoms: _150  and  _152
REMARK   64  A    between atoms: _152  and  _153
REMARK   65  A    between atoms: _152  and  _155
REMARK   66  A    between atoms: _155  and  _156
REMARK   67  A    between atoms: _156  and  _157
REMARK   68  A    between atoms: _157  and  _158
REMARK   69  A    between atoms: _167  and  _169
REMARK   70  A    between atoms: _169  and  _170
REMARK   71  A    between atoms: _169  and  _172
REMARK   72  A    between atoms: _172  and  _173
REMARK   73  A    between atoms: _173  and  _174
REMARK   74  A    between atoms: _174  and  _175
REMARK   75  A    between atoms: _184  and  _186
REMARK   76  A    between atoms: _186  and  _187
REMARK   77  A    between atoms: _186  and  _189
REMARK   78  A    between atoms: _189  and  _190
REMARK   79  A    between atoms: _190  and  _191
REMARK   80  A    between atoms: _194  and  _196
REMARK   81  A    between atoms: _196  and  _197
REMARK   82  A    between atoms: _196  and  _199
REMARK   83  A    between atoms: _199  and  _200
REMARK   84  A    between atoms: _203  and  _205
REMARK   85  A    between atoms: _205  and  _206
REMARK   86  A    between atoms: _205  and  _208
REMARK   87  A    between atoms: _208  and  _209
REMARK   88  A    between atoms: _209  and  _210
REMARK   89  A    between atoms: _210  and  _211
REMARK   90  A    between atoms: _220  and  _222
REMARK   91  A    between atoms: _222  and  _223
REMARK   92  A    between atoms: _222  and  _225
REMARK   93  A    between atoms: _225  and  _226
REMARK   94  A    between atoms: _229  and  _231
REMARK   95  A    between atoms: _231  and  _232
REMARK   96  A    between atoms: _231  and  _234
REMARK   97  A    between atoms: _234  and  _235
REMARK   98  A    between atoms: _238  and  _240
REMARK   99  A    between atoms: _240  and  _241
REMARK  100  A    between atoms: _240  and  _243
REMARK  101  A    between atoms: _243  and  _244
REMARK  102  A    between atoms: _244  and  _245
REMARK  103  A    between atoms: _245  and  _246
REMARK  104  A    between atoms: _246  and  _247
REMARK  105  A    between atoms: _251  and  _253
REMARK  106  A    between atoms: _253  and  _254
REMARK  107  A    between atoms: _253  and  _256
REMARK  108  A    between atoms: _256  and  _257
REMARK  109  A    between atoms: _262  and  _264
REMARK  110  A    between atoms: _264  and  _265
REMARK  111  A    between atoms: _264  and  _267
REMARK  112  A    between atoms: _267  and  _268
REMARK  113  A    between atoms: _268  and  _269
REMARK  114  A    between atoms: _271  and  _273
REMARK  115  A    between atoms: _273  and  _274
REMARK  116  A    between atoms: _273  and  _276
REMARK  117  A    between atoms: _279  and  _281
REMARK  118  A    between atoms: _281  and  _282
REMARK  119  A    between atoms: _281  and  _284
REMARK  120  A    between atoms: _284  and  _285
REMARK  121  A    between atoms: _288  and  _290
REMARK  122  A    between atoms: _290  and  _291
REMARK  123  A    between atoms: _293  and  _295
REMARK  124  A    between atoms: _295  and  _296
REMARK  125  A    between atoms: _295  and  _298
REMARK  126  A    between atoms: _298  and  _299
REMARK  127  A    between atoms: _302  and  _304
REMARK  128  A    between atoms: _304  and  _305
REMARK  129  A    between atoms: _304  and  _307
REMARK  130  A    between atoms: _307  and  _308
REMARK  131  A    between atoms: _311  and  _313
REMARK  132  A    between atoms: _313  and  _314
REMARK  133  A    between atoms: _313  and  _316
REMARK  134  A    between atoms: _316  and  _317
REMARK  135  A    between atoms: _320  and  _322
REMARK  136  A    between atoms: _322  and  _323
REMARK  137  A    between atoms: _322  and  _325
REMARK  138  A    between atoms: _325  and  _326
REMARK  139  A    between atoms: _331  and  _332
REMARK  140  A    between atoms: _334  and  _336
REMARK  141  A    between atoms: _336  and  _337
REMARK  142  A    between atoms: _336  and  _339
REMARK  143  A    between atoms: _339  and  _340
REMARK  144  A    between atoms: _343  and  _345
REMARK  145  A    between atoms: _345  and  _346
REMARK  146  A    between atoms: _345  and  _348
REMARK  147  A    between atoms: _351  and  _353
REMARK  148  A    between atoms: _353  and  _354
REMARK  149  A    between atoms: _353  and  _356
REMARK  150  A    between atoms: _356  and  _357
REMARK  151  A    between atoms: _360  and  _362
REMARK  152  A    between atoms: _362  and  _363
REMARK  153  A    between atoms: _362  and  _365
REMARK  154  A    between atoms: _365  and  _366
REMARK  155  A    between atoms: _371  and  _373
REMARK  156  A    between atoms: _373  and  _374
REMARK  157  A    between atoms: _373  and  _376
REMARK  158  A    between atoms: _376  and  _377
REMARK  159  A    between atoms: _380  and  _382
REMARK  160  A    between atoms: _382  and  _383
REMARK  161  A    between atoms: _382  and  _385
REMARK  162  A    between atoms: _385  and  _386
REMARK  163  A    between atoms: _386  and  _387
REMARK  164  A    between atoms: _389  and  _391
REMARK  165  A    between atoms: _391  and  _392
REMARK  166  A    between atoms: _394  and  _396
REMARK  167  A    between atoms: _396  and  _397
REMARK  168  A    between atoms: _400  and  _402
REMARK  169  A    between atoms: _402  and  _403
REMARK  170  A    between atoms: _402  and  _405
REMARK  171  A    between atoms: _405  and  _406
REMARK  172  A    between atoms: _409  and  _411
REMARK  173  A    between atoms: _411  and  _412
REMARK  174  A    between atoms: _411  and  _414
REMARK  175  A    between atoms: _414  and  _415
REMARK  176  A    between atoms: _418  and  _420
REMARK  177  A    between atoms: _420  and  _421
REMARK  178  A    between atoms: _420  and  _423
REMARK  179  A    between atoms: _423  and  _424
REMARK  180  A    between atoms: _429  and  _431
REMARK  181  A    between atoms: _431  and  _432
REMARK  182  A    between atoms: _431  and  _434
REMARK  183  A    between atoms: _434  and  _435
REMARK  184  A    between atoms: _440  and  _442
REMARK  185  A    between atoms: _442  and  _443
REMARK  186  A    between atoms: _442  and  _445
REMARK  187  A    between atoms: _445  and  _446
REMARK  188  A    between atoms: _449  and  _451
REMARK  189  A    between atoms: _451  and  _452
REMARK  190  A    between atoms: _451  and  _454
REMARK  191  A    between atoms: _454  and  _455
REMARK  192  A    between atoms: _458  and  _460
REMARK  193  A    between atoms: _460  and  _461
REMARK  194  A    between atoms: _460  and  _463
REMARK  195  A    between atoms: _463  and  _464
REMARK  196  A    between atoms: _470  and  _471
REMARK  197  A    between atoms: _476  and  _478
REMARK  198  A    between atoms: _478  and  _479
REMARK  199  A    between atoms: _478  and  _481
REMARK  200  A    between atoms: _481  and  _482
REMARK  201  A    between atoms: _484  and  _486
REMARK  202  A    between atoms: _486  and  _487
REMARK  203  A    between atoms: _486  and  _489
REMARK  204  A    between atoms: _489  and  _490
REMARK  205  A    between atoms: _495  and  _497
REMARK  206  A    between atoms: _497  and  _498
REMARK  207  A    between atoms: _497  and  _500
REMARK  208  A    between atoms: _500  and  _501
REMARK  209  A    between atoms: _504  and  _506
REMARK  210  A    between atoms: _506  and  _507
REMARK  211  A    between atoms: _510  and  _512
REMARK  212  A    between atoms: _512  and  _513
REMARK  213  A    between atoms: _512  and  _515
REMARK  214  A    between atoms: _518  and  _520
REMARK  215  A    between atoms: _520  and  _521
REMARK  216  A    between atoms: _520  and  _523
REMARK  217  A    between atoms: _523  and  _524
REMARK  218  A    between atoms: _529  and  _531
REMARK  219  A    between atoms: _531  and  _532
REMARK  220  A    between atoms: _531  and  _534
REMARK  221  A    between atoms: _534  and  _535
REMARK  222  A    between atoms: _535  and  _536
REMARK  223  A    between atoms: _536  and  _537
REMARK  224  A    between atoms: _537  and  _538
REMARK  225  A    between atoms: _542  and  _544
REMARK  226  A    between atoms: _544  and  _545
REMARK  227  A    between atoms: _544  and  _547
REMARK  228  A    between atoms: _547  and  _548
REMARK  229  A    between atoms: _551  and  _553
REMARK  230  A    between atoms: _553  and  _554
REMARK  231  A    between atoms: _553  and  _556
REMARK  232  A    between atoms: _556  and  _557
REMARK  233  A    between atoms: _560  and  _562
REMARK  234  A    between atoms: _562  and  _563
REMARK  235  A    between atoms: _562  and  _565
REMARK  236  A    between atoms: _565  and  _566
REMARK  237  A    between atoms: _569  and  _571
REMARK  238  A    between atoms: _571  and  _572
REMARK  239  A    between atoms: _571  and  _574
REMARK  240  A    between atoms: _574  and  _575
REMARK  241  A    between atoms: _581  and  _583
REMARK  242  A    between atoms: _583  and  _584
REMARK  243  A    between atoms: _586  and  _588
REMARK  244  A    between atoms: _588  and  _589
REMARK  245  A    between atoms: _588  and  _591
REMARK  246  A    between atoms: _591  and  _592
REMARK  247  A    between atoms: _595  and  _597
REMARK  248  A    between atoms: _597  and  _598
REMARK  249  A    between atoms: _601  and  _603
REMARK  250  A    between atoms: _603  and  _604
REMARK  251  A    between atoms: _603  and  _606
REMARK  252  A    between atoms: _606  and  _607
REMARK  253  A    between atoms: _607  and  _608
REMARK  254  A    between atoms: _608  and  _609
REMARK  255  A    between atoms: _618  and  _620
REMARK  256  A    between atoms: _620  and  _621
REMARK  257  A    between atoms: _620  and  _623
REMARK  258  A    between atoms: _623  and  _624
REMARK  259  A    between atoms: _629  and  _630
REMARK                            x       y       z     vdW  Elec       q    Type
REMARK                         _______ _______ _______ _____ _____    ______ ____
ROOT
ATOM      1  O   HOH     1      -9.182   7.866  28.351  0.00  0.00    +0.000 OA
ENDROOT
TORSDOF 0
REMARK  Name = ../refined-set-2016/2yix/2yix_pocket.pdb
REMARK  259 active torsions:
REMARK  status: ('A' for Active; 'I' for Inactive)
REMARK    1  A    between atoms: _1  and  _3
REMARK    2  A    between atoms: _3  and  _4
REMARK    3  A    between atoms: _3  and  _6
REMARK    4  A    between atoms: _9  and  _11
REMARK    5  A    between atoms: _11  and  _12
REMARK    6  A    between atoms: _14  and  _16
REMARK    7  A    between atoms: _16  and  _17
REMARK    8  A    between atoms: _16  and  _19
REMARK    9  A    between atoms: _19  and  _20
REMARK   10  A    between atoms: _22  and  _24
REMARK   11  A    between atoms: _24  and  _25
REMARK   12  A    between atoms: _28  and  _30
REMARK   13  A    between atoms: _30  and  _31
REMARK   14  A    between atoms: _30  and  _33
REMARK   15  A    between atoms: _33  and  _34
REMARK   16  A    between atoms: _39  and  _40
REMARK   17  A    between atoms: _42  and  _44
REMARK   18  A    between atoms: _44  and  _45
REMARK   19  A    between atoms: _47  and  _49
REMARK   20  A    between atoms: _49  and  _50
REMARK   21  A    between atoms: _49  and  _52
REMARK   22  A    between atoms: _52  and  _53
REMARK   23  A    between atoms: _55  and  _57
REMARK   24  A    between atoms: _57  and  _58
REMARK   25  A    between atoms: _57  and  _60
REMARK   26  A    between atoms: _63  and  _65
REMARK   27  A    between atoms: _65  and  _66
REMARK   28  A    between atoms: _65  and  _68
REMARK   29  A    between atoms: _70  and  _72
REMARK   30  A    between atoms: _72  and  _73
REMARK   31  A    between atoms: _76  and  _78
REMARK   32  A    between atoms: _78  and  _79
REMARK   33  A    between atoms: _78  and  _81
REMARK   34  A    between atoms: _81  and  _82
REMARK   35  A    between atoms: _82  and  _83
REMARK   36  A    between atoms: _83  and  _84
REMARK   37  A    between atoms: _93  and  _95
REMARK   38  A    between atoms: _95  and  _96
REMARK   39  A    between atoms: _95  and  _98
REMARK   40  A    between atoms: _101  and  _103
REMARK   41  A    between atoms: _103  and  _104
REMARK   42  A    between atoms: _107  and  _109
REMARK   43  A    between atoms: _109  and  _110
REMARK   44  A    between atoms: _109  and  _112
REMARK   45  A    between atoms: _115  and  _117
REMARK   46  A    between atoms: _117  and  _118
REMARK   47  A    between atoms: _117  and  _120
REMARK   48  A    between atoms: _120  and  _121
REMARK   49  A    between atoms: _121  and  _122
REMARK   50  A    between atoms: _122  and  _123
REMARK   51  A    between atoms: _123  and  _124
REMARK   52  A    between atoms: _128  and  _130
REMARK   53  A    between atoms: _130  and  _131
REMARK   54  A    between atoms: _130  and  _133
REMARK   55  A    between atoms: _133  and  _134
REMARK   56  A    between atoms: _134  and  _135
REMARK   57  A    between atoms: _135  and  _136
REMARK   58  A    between atoms: _136  and  _137
REMARK   59  A    between atoms: _141  and  _143
REMARK   60  A    between atoms: _143  and  _144
REMARK   61  A    between atoms: _143  and  _146
REMARK   62  A    between atoms: _146  and  _147
REMARK   63  A    between atoms: _150  and  _152
REMARK   64  A    between atoms: _152  and  _153
REMARK   65  A    between atoms: _152  and  _155
REMARK   66  A    between atoms: _155  and  _156
REMARK   67  A    between atoms: _156  and  _157
REMARK   68  A    between atoms: _157  and  _158
REMARK   69  A    between atoms: _167  and  _169
REMARK   70  A    between atoms: _169  and  _170
REMARK   71  A    between atoms: _169  and  _172
REMARK   72  A    between atoms: _172  and  _173
REMARK   73  A    between atoms: _173  and  _174
REMARK   74  A    between atoms: _174  and  _175
REMARK   75  A    between atoms: _184  and  _186
REMARK   76  A    between atoms: _186  and  _187
REMARK   77  A    between atoms: _186  and  _189
REMARK   78  A    between atoms: _189  and  _190
REMARK   79  A    between atoms: _190  and  _191
REMARK   80  A    between atoms: _194  and  _196
REMARK   81  A    between atoms: _196  and  _197
REMARK   82  A    between atoms: _196  and  _199
REMARK   83  A    between atoms: _199  and  _200
REMARK   84  A    between atoms: _203  and  _205
REMARK   85  A    between atoms: _205  and  _206
REMARK   86  A    between atoms: _205  and  _208
REMARK   87  A    between atoms: _208  and  _209
REMARK   88  A    between atoms: _209  and  _210
REMARK   89  A    between atoms: _210  and  _211
REMARK   90  A    between atoms: _220  and  _222
REMARK   91  A    between atoms: _222  and  _223
REMARK   92  A    between atoms: _222  and  _225
REMARK   93  A    between atoms: _225  and  _226
REMARK   94  A    between atoms: _229  and  _231
REMARK   95  A    between atoms: _231  and  _232
REMARK   96  A    between atoms: _231  and  _234
REMARK   97  A    between atoms: _234  and  _235
REMARK   98  A    between atoms: _238  and  _240
REMARK   99  A    between atoms: _240  and  _241
REMARK  100  A    between atoms: _240  and  _243
REMARK  101  A    between atoms: _243  and  _244
REMARK  102  A    between atoms: _244  and  _245
REMARK  103  A    between atoms: _245  and  _246
REMARK  104  A    between atoms: _246  and  _247
REMARK  105  A    between atoms: _251  and  _253
REMARK  106  A    between atoms: _253  and  _254
REMARK  107  A    between atoms: _253  and  _256
REMARK  108  A    between atoms: _256  and  _257
REMARK  109  A    between atoms: _262  and  _264
REMARK  110  A    between atoms: _264  and  _265
REMARK  111  A    between atoms: _264  and  _267
REMARK  112  A    between atoms: _267  and  _268
REMARK  113  A    between atoms: _268  and  _269
REMARK  114  A    between atoms: _271  and  _273
REMARK  115  A    between atoms: _273  and  _274
REMARK  116  A    between atoms: _273  and  _276
REMARK  117  A    between atoms: _279  and  _281
REMARK  118  A    between atoms: _281  and  _282
REMARK  119  A    between atoms: _281  and  _284
REMARK  120  A    between atoms: _284  and  _285
REMARK  121  A    between atoms: _288  and  _290
REMARK  122  A    between atoms: _290  and  _291
REMARK  123  A    between atoms: _293  and  _295
REMARK  124  A    between atoms: _295  and  _296
REMARK  125  A    between atoms: _295  and  _298
REMARK  126  A    between atoms: _298  and  _299
REMARK  127  A    between atoms: _302  and  _304
REMARK  128  A    between atoms: _304  and  _305
REMARK  129  A    between atoms: _304  and  _307
REMARK  130  A    between atoms: _307  and  _308
REMARK  131  A    between atoms: _311  and  _313
REMARK  132  A    between atoms: _313  and  _314
REMARK  133  A    between atoms: _313  and  _316
REMARK  134  A    between atoms: _316  and  _317
REMARK  135  A    between atoms: _320  and  _322
REMARK  136  A    between atoms: _322  and  _323
REMARK  137  A    between atoms: _322  and  _325
REMARK  138  A    between atoms: _325  and  _326
REMARK  139  A    between atoms: _331  and  _332
REMARK  140  A    between atoms: _334  and  _336
REMARK  141  A    between atoms: _336  and  _337
REMARK  142  A    between atoms: _336  and  _339
REMARK  143  A    between atoms: _339  and  _340
REMARK  144  A    between atoms: _343  and  _345
REMARK  145  A    between atoms: _345  and  _346
REMARK  146  A    between atoms: _345  and  _348
REMARK  147  A    between atoms: _351  and  _353
REMARK  148  A    between atoms: _353  and  _354
REMARK  149  A    between atoms: _353  and  _356
REMARK  150  A    between atoms: _356  and  _357
REMARK  151  A    between atoms: _360  and  _362
REMARK  152  A    between atoms: _362  and  _363
REMARK  153  A    between atoms: _362  and  _365
REMARK  154  A    between atoms: _365  and  _366
REMARK  155  A    between atoms: _371  and  _373
REMARK  156  A    between atoms: _373  and  _374
REMARK  157  A    between atoms: _373  and  _376
REMARK  158  A    between atoms: _376  and  _377
REMARK  159  A    between atoms: _380  and  _382
REMARK  160  A    between atoms: _382  and  _383
REMARK  161  A    between atoms: _382  and  _385
REMARK  162  A    between atoms: _385  and  _386
REMARK  163  A    between atoms: _386  and  _387
REMARK  164  A    between atoms: _389  and  _391
REMARK  165  A    between atoms: _391  and  _392
REMARK  166  A    between atoms: _394  and  _396
REMARK  167  A    between atoms: _396  and  _397
REMARK  168  A    between atoms: _400  and  _402
REMARK  169  A    between atoms: _402  and  _403
REMARK  170  A    between atoms: _402  and  _405
REMARK  171  A    between atoms: _405  and  _406
REMARK  172  A    between atoms: _409  and  _411
REMARK  173  A    between atoms: _411  and  _412
REMARK  174  A    between atoms: _411  and  _414
REMARK  175  A    between atoms: _414  and  _415
REMARK  176  A    between atoms: _418  and  _420
REMARK  177  A    between atoms: _420  and  _421
REMARK  178  A    between atoms: _420  and  _423
REMARK  179  A    between atoms: _423  and  _424
REMARK  180  A    between atoms: _429  and  _431
REMARK  181  A    between atoms: _431  and  _432
REMARK  182  A    between atoms: _431  and  _434
REMARK  183  A    between atoms: _434  and  _435
REMARK  184  A    between atoms: _440  and  _442
REMARK  185  A    between atoms: _442  and  _443
REMARK  186  A    between atoms: _442  and  _445
REMARK  187  A    between atoms: _445  and  _446
REMARK  188  A    between atoms: _449  and  _451
REMARK  189  A    between atoms: _451  and  _452
REMARK  190  A    between atoms: _451  and  _454
REMARK  191  A    between atoms: _454  and  _455
REMARK  192  A    between atoms: _458  and  _460
REMARK  193  A    between atoms: _460  and  _461
REMARK  194  A    between atoms: _460  and  _463
REMARK  195  A    between atoms: _463  and  _464
REMARK  196  A    between atoms: _470  and  _471
REMARK  197  A    between atoms: _476  and  _478
REMARK  198  A    between atoms: _478  and  _479
REMARK  199  A    between atoms: _478  and  _481
REMARK  200  A    between atoms: _481  and  _482
REMARK  201  A    between atoms: _484  and  _486
REMARK  202  A    between atoms: _486  and  _487
REMARK  203  A    between atoms: _486  and  _489
REMARK  204  A    between atoms: _489  and  _490
REMARK  205  A    between atoms: _495  and  _497
REMARK  206  A    between atoms: _497  and  _498
REMARK  207  A    between atoms: _497  and  _500
REMARK  208  A    between atoms: _500  and  _501
REMARK  209  A    between atoms: _504  and  _506
REMARK  210  A    between atoms: _506  and  _507
REMARK  211  A    between atoms: _510  and  _512
REMARK  212  A    between atoms: _512  and  _513
REMARK  213  A    between atoms: _512  and  _515
REMARK  214  A    between atoms: _518  and  _520
REMARK  215  A    between atoms: _520  and  _521
REMARK  216  A    between atoms: _520  and  _523
REMARK  217  A    between atoms: _523  and  _524
REMARK  218  A    between atoms: _529  and  _531
REMARK  219  A    between atoms: _531  and  _532
REMARK  220  A    between atoms: _531  and  _534
REMARK  221  A    between atoms: _534  and  _535
REMARK  222  A    between atoms: _535  and  _536
REMARK  223  A    between atoms: _536  and  _537
REMARK  224  A    between atoms: _537  and  _538
REMARK  225  A    between atoms: _542  and  _544
REMARK  226  A    between atoms: _544  and  _545
REMARK  227  A    between atoms: _544  and  _547
REMARK  228  A    between atoms: _547  and  _548
REMARK  229  A    between atoms: _551  and  _553
REMARK  230  A    between atoms: _553  and  _554
REMARK  231  A    between atoms: _553  and  _556
REMARK  232  A    between atoms: _556  and  _557
REMARK  233  A    between atoms: _560  and  _562
REMARK  234  A    between atoms: _562  and  _563
REMARK  235  A    between atoms: _562  and  _565
REMARK  236  A    between atoms: _565  and  _566
REMARK  237  A    between atoms: _569  and  _571
REMARK  238  A    between atoms: _571  and  _572
REMARK  239  A    between atoms: _571  and  _574
REMARK  240  A    between atoms: _574  and  _575
REMARK  241  A    between atoms: _581  and  _583
REMARK  242  A    between atoms: _583  and  _584
REMARK  243  A    between atoms: _586  and  _588
REMARK  244  A    between atoms: _588  and  _589
REMARK  245  A    between atoms: _588  and  _591
REMARK  246  A    between atoms: _591  and  _592
REMARK  247  A    between atoms: _595  and  _597
REMARK  248  A    between atoms: _597  and  _598
REMARK  249  A    between atoms: _601  and  _603
REMARK  250  A    between atoms: _603  and  _604
REMARK  251  A    between atoms: _603  and  _606
REMARK  252  A    between atoms: _606  and  _607
REMARK  253  A    between atoms: _607  and  _608
REMARK  254  A    between atoms: _608  and  _609
REMARK  255  A    between atoms: _618  and  _620
REMARK  256  A    between atoms: _620  and  _621
REMARK  257  A    between atoms: _620  and  _623
REMARK  258  A    between atoms: _623  and  _624
REMARK  259  A    between atoms: _629  and  _630
REMARK                            x       y       z     vdW  Elec       q    Type
REMARK                         _______ _______ _______ _____ _____    ______ ____
ROOT
ATOM      1  O   HOH     1       1.603  22.077  34.687  0.00  0.00    +0.000 OA
ENDROOT
TORSDOF 0
REMARK  Name = ../refined-set-2016/2yix/2yix_pocket.pdb
REMARK  259 active torsions:
REMARK  status: ('A' for Active; 'I' for Inactive)
REMARK    1  A    between atoms: _1  and  _3
REMARK    2  A    between atoms: _3  and  _4
REMARK    3  A    between atoms: _3  and  _6
REMARK    4  A    between atoms: _9  and  _11
REMARK    5  A    between atoms: _11  and  _12
REMARK    6  A    between atoms: _14  and  _16
REMARK    7  A    between atoms: _16  and  _17
REMARK    8  A    between atoms: _16  and  _19
REMARK    9  A    between atoms: _19  and  _20
REMARK   10  A    between atoms: _22  and  _24
REMARK   11  A    between atoms: _24  and  _25
REMARK   12  A    between atoms: _28  and  _30
REMARK   13  A    between atoms: _30  and  _31
REMARK   14  A    between atoms: _30  and  _33
REMARK   15  A    between atoms: _33  and  _34
REMARK   16  A    between atoms: _39  and  _40
REMARK   17  A    between atoms: _42  and  _44
REMARK   18  A    between atoms: _44  and  _45
REMARK   19  A    between atoms: _47  and  _49
REMARK   20  A    between atoms: _49  and  _50
REMARK   21  A    between atoms: _49  and  _52
REMARK   22  A    between atoms: _52  and  _53
REMARK   23  A    between atoms: _55  and  _57
REMARK   24  A    between atoms: _57  and  _58
REMARK   25  A    between atoms: _57  and  _60
REMARK   26  A    between atoms: _63  and  _65
REMARK   27  A    between atoms: _65  and  _66
REMARK   28  A    between atoms: _65  and  _68
REMARK   29  A    between atoms: _70  and  _72
REMARK   30  A    between atoms: _72  and  _73
REMARK   31  A    between atoms: _76  and  _78
REMARK   32  A    between atoms: _78  and  _79
REMARK   33  A    between atoms: _78  and  _81
REMARK   34  A    between atoms: _81  and  _82
REMARK   35  A    between atoms: _82  and  _83
REMARK   36  A    between atoms: _83  and  _84
REMARK   37  A    between atoms: _93  and  _95
REMARK   38  A    between atoms: _95  and  _96
REMARK   39  A    between atoms: _95  and  _98
REMARK   40  A    between atoms: _101  and  _103
REMARK   41  A    between atoms: _103  and  _104
REMARK   42  A    between atoms: _107  and  _109
REMARK   43  A    between atoms: _109  and  _110
REMARK   44  A    between atoms: _109  and  _112
REMARK   45  A    between atoms: _115  and  _117
REMARK   46  A    between atoms: _117  and  _118
REMARK   47  A    between atoms: _117  and  _120
REMARK   48  A    between atoms: _120  and  _121
REMARK   49  A    between atoms: _121  and  _122
REMARK   50  A    between atoms: _122  and  _123
REMARK   51  A    between atoms: _123  and  _124
REMARK   52  A    between atoms: _128  and  _130
REMARK   53  A    between atoms: _130  and  _131
REMARK   54  A    between atoms: _130  and  _133
REMARK   55  A    between atoms: _133  and  _134
REMARK   56  A    between atoms: _134  and  _135
REMARK   57  A    between atoms: _135  and  _136
REMARK   58  A    between atoms: _136  and  _137
REMARK   59  A    between atoms: _141  and  _143
REMARK   60  A    between atoms: _143  and  _144
REMARK   61  A    between atoms: _143  and  _146
REMARK   62  A    between atoms: _146  and  _147
REMARK   63  A    between atoms: _150  and  _152
REMARK   64  A    between atoms: _152  and  _153
REMARK   65  A    between atoms: _152  and  _155
REMARK   66  A    between atoms: _155  and  _156
REMARK   67  A    between atoms: _156  and  _157
REMARK   68  A    between atoms: _157  and  _158
REMARK   69  A    between atoms: _167  and  _169
REMARK   70  A    between atoms: _169  and  _170
REMARK   71  A    between atoms: _169  and  _172
REMARK   72  A    between atoms: _172  and  _173
REMARK   73  A    between atoms: _173  and  _174
REMARK   74  A    between atoms: _174  and  _175
REMARK   75  A    between atoms: _184  and  _186
REMARK   76  A    between atoms: _186  and  _187
REMARK   77  A    between atoms: _186  and  _189
REMARK   78  A    between atoms: _189  and  _190
REMARK   79  A    between atoms: _190  and  _191
REMARK   80  A    between atoms: _194  and  _196
REMARK   81  A    between atoms: _196  and  _197
REMARK   82  A    between atoms: _196  and  _199
REMARK   83  A    between atoms: _199  and  _200
REMARK   84  A    between atoms: _203  and  _205
REMARK   85  A    between atoms: _205  and  _206
REMARK   86  A    between atoms: _205  and  _208
REMARK   87  A    between atoms: _208  and  _209
REMARK   88  A    between atoms: _209  and  _210
REMARK   89  A    between atoms: _210  and  _211
REMARK   90  A    between atoms: _220  and  _222
REMARK   91  A    between atoms: _222  and  _223
REMARK   92  A    between atoms: _222  and  _225
REMARK   93  A    between atoms: _225  and  _226
REMARK   94  A    between atoms: _229  and  _231
REMARK   95  A    between atoms: _231  and  _232
REMARK   96  A    between atoms: _231  and  _234
REMARK   97  A    between atoms: _234  and  _235
REMARK   98  A    between atoms: _238  and  _240
REMARK   99  A    between atoms: _240  and  _241
REMARK  100  A    between atoms: _240  and  _243
REMARK  101  A    between atoms: _243  and  _244
REMARK  102  A    between atoms: _244  and  _245
REMARK  103  A    between atoms: _245  and  _246
REMARK  104  A    between atoms: _246  and  _247
REMARK  105  A    between atoms: _251  and  _253
REMARK  106  A    between atoms: _253  and  _254
REMARK  107  A    between atoms: _253  and  _256
REMARK  108  A    between atoms: _256  and  _257
REMARK  109  A    between atoms: _262  and  _264
REMARK  110  A    between atoms: _264  and  _265
REMARK  111  A    between atoms: _264  and  _267
REMARK  112  A    between atoms: _267  and  _268
REMARK  113  A    between atoms: _268  and  _269
REMARK  114  A    between atoms: _271  and  _273
REMARK  115  A    between atoms: _273  and  _274
REMARK  116  A    between atoms: _273  and  _276
REMARK  117  A    between atoms: _279  and  _281
REMARK  118  A    between atoms: _281  and  _282
REMARK  119  A    between atoms: _281  and  _284
REMARK  120  A    between atoms: _284  and  _285
REMARK  121  A    between atoms: _288  and  _290
REMARK  122  A    between atoms: _290  and  _291
REMARK  123  A    between atoms: _293  and  _295
REMARK  124  A    between atoms: _295  and  _296
REMARK  125  A    between atoms: _295  and  _298
REMARK  126  A    between atoms: _298  and  _299
REMARK  127  A    between atoms: _302  and  _304
REMARK  128  A    between atoms: _304  and  _305
REMARK  129  A    between atoms: _304  and  _307
REMARK  130  A    between atoms: _307  and  _308
REMARK  131  A    between atoms: _311  and  _313
REMARK  132  A    between atoms: _313  and  _314
REMARK  133  A    between atoms: _313  and  _316
REMARK  134  A    between atoms: _316  and  _317
REMARK  135  A    between atoms: _320  and  _322
REMARK  136  A    between atoms: _322  and  _323
REMARK  137  A    between atoms: _322  and  _325
REMARK  138  A    between atoms: _325  and  _326
REMARK  139  A    between atoms: _331  and  _332
REMARK  140  A    between atoms: _334  and  _336
REMARK  141  A    between atoms: _336  and  _337
REMARK  142  A    between atoms: _336  and  _339
REMARK  143  A    between atoms: _339  and  _340
REMARK  144  A    between atoms: _343  and  _345
REMARK  145  A    between atoms: _345  and  _346
REMARK  146  A    between atoms: _345  and  _348
REMARK  147  A    between atoms: _351  and  _353
REMARK  148  A    between atoms: _353  and  _354
REMARK  149  A    between atoms: _353  and  _356
REMARK  150  A    between atoms: _356  and  _357
REMARK  151  A    between atoms: _360  and  _362
REMARK  152  A    between atoms: _362  and  _363
REMARK  153  A    between atoms: _362  and  _365
REMARK  154  A    between atoms: _365  and  _366
REMARK  155  A    between atoms: _371  and  _373
REMARK  156  A    between atoms: _373  and  _374
REMARK  157  A    between atoms: _373  and  _376
REMARK  158  A    between atoms: _376  and  _377
REMARK  159  A    between atoms: _380  and  _382
REMARK  160  A    between atoms: _382  and  _383
REMARK  161  A    between atoms: _382  and  _385
REMARK  162  A    between atoms: _385  and  _386
REMARK  163  A    between atoms: _386  and  _387
REMARK  164  A    between atoms: _389  and  _391
REMARK  165  A    between atoms: _391  and  _392
REMARK  166  A    between atoms: _394  and  _396
REMARK  167  A    between atoms: _396  and  _397
REMARK  168  A    between atoms: _400  and  _402
REMARK  169  A    between atoms: _402  and  _403
REMARK  170  A    between atoms: _402  and  _405
REMARK  171  A    between atoms: _405  and  _406
REMARK  172  A    between atoms: _409  and  _411
REMARK  173  A    between atoms: _411  and  _412
REMARK  174  A    between atoms: _411  and  _414
REMARK  175  A    between atoms: _414  and  _415
REMARK  176  A    between atoms: _418  and  _420
REMARK  177  A    between atoms: _420  and  _421
REMARK  178  A    between atoms: _420  and  _423
REMARK  179  A    between atoms: _423  and  _424
REMARK  180  A    between atoms: _429  and  _431
REMARK  181  A    between atoms: _431  and  _432
REMARK  182  A    between atoms: _431  and  _434
REMARK  183  A    between atoms: _434  and  _435
REMARK  184  A    between atoms: _440  and  _442
REMARK  185  A    between atoms: _442  and  _443
REMARK  186  A    between atoms: _442  and  _445
REMARK  187  A    between atoms: _445  and  _446
REMARK  188  A    between atoms: _449  and  _451
REMARK  189  A    between atoms: _451  and  _452
REMARK  190  A    between atoms: _451  and  _454
REMARK  191  A    between atoms: _454  and  _455
REMARK  192  A    between atoms: _458  and  _460
REMARK  193  A    between atoms: _460  and  _461
REMARK  194  A    between atoms: _460  and  _463
REMARK  195  A    between atoms: _463  and  _464
REMARK  196  A    between atoms: _470  and  _471
REMARK  197  A    between atoms: _476  and  _478
REMARK  198  A    between atoms: _478  and  _479
REMARK  199  A    between atoms: _478  and  _481
REMARK  200  A    between atoms: _481  and  _482
REMARK  201  A    between atoms: _484  and  _486
REMARK  202  A    between atoms: _486  and  _487
REMARK  203  A    between atoms: _486  and  _489
REMARK  204  A    between atoms: _489  and  _490
REMARK  205  A    between atoms: _495  and  _497
REMARK  206  A    between atoms: _497  and  _498
REMARK  207  A    between atoms: _497  and  _500
REMARK  208  A    between atoms: _500  and  _501
REMARK  209  A    between atoms: _504  and  _506
REMARK  210  A    between atoms: _506  and  _507
REMARK  211  A    between atoms: _510  and  _512
REMARK  212  A    between atoms: _512  and  _513
REMARK  213  A    between atoms: _512  and  _515
REMARK  214  A    between atoms: _518  and  _520
REMARK  215  A    between atoms: _520  and  _521
REMARK  216  A    between atoms: _520  and  _523
REMARK  217  A    between atoms: _523  and  _524
REMARK  218  A    between atoms: _529  and  _531
REMARK  219  A    between atoms: _531  and  _532
REMARK  220  A    between atoms: _531  and  _534
REMARK  221  A    between atoms: _534  and  _535
REMARK  222  A    between atoms: _535  and  _536
REMARK  223  A    between atoms: _536  and  _537
REMARK  224  A    between atoms: _537  and  _538
REMARK  225  A    between atoms: _542  and  _544
REMARK  226  A    between atoms: _544  and  _545
REMARK  227  A    between atoms: _544  and  _547
REMARK  228  A    between atoms: _547  and  _548
REMARK  229  A    between atoms: _551  and  _553
REMARK  230  A    between atoms: _553  and  _554
REMARK  231  A    between atoms: _553  and  _556
REMARK  232  A    between atoms: _556  and  _557
REMARK  233  A    between atoms: _560  and  _562
REMARK  234  A    between atoms: _562  and  _563
REMARK  235  A    between atoms: _562  and  _565
REMARK  236  A    between atoms: _565  and  _566
REMARK  237  A    between atoms: _569  and  _571
REMARK  238  A    between atoms: _571  and  _572
REMARK  239  A    between atoms: _571  and  _574
REMARK  240  A    between atoms: _574  and  _575
REMARK  241  A    between atoms: _581  and  _583
REMARK  242  A    between atoms: _583  and  _584
REMARK  243  A    between atoms: _586  and  _588
REMARK  244  A    between atoms: _588  and  _589
REMARK  245  A    between atoms: _588  and  _591
REMARK  246  A    between atoms: _591  and  _592
REMARK  247  A    between atoms: _595  and  _597
REMARK  248  A    between atoms: _597  and  _598
REMARK  249  A    between atoms: _601  and  _603
REMARK  250  A    between atoms: _603  and  _604
REMARK  251  A    between atoms: _603  and  _606
REMARK  252  A    between atoms: _606  and  _607
REMARK  253  A    between atoms: _607  and  _608
REMARK  254  A    between atoms: _608  and  _609
REMARK  255  A    between atoms: _618  and  _620
REMARK  256  A    between atoms: _620  and  _621
REMARK  257  A    between atoms: _620  and  _623
REMARK  258  A    between atoms: _623  and  _624
REMARK  259  A    between atoms: _629  and  _630
REMARK                            x       y       z     vdW  Elec       q    Type
REMARK                         _______ _______ _______ _____ _____    ______ ____
ROOT
ATOM      1  O   HOH     1       2.036  17.440  31.416  0.00  0.00    +0.000 OA
ENDROOT
TORSDOF 0
REMARK  Name = ../refined-set-2016/2yix/2yix_pocket.pdb
REMARK  259 active torsions:
REMARK  status: ('A' for Active; 'I' for Inactive)
REMARK    1  A    between atoms: _1  and  _3
REMARK    2  A    between atoms: _3  and  _4
REMARK    3  A    between atoms: _3  and  _6
REMARK    4  A    between atoms: _9  and  _11
REMARK    5  A    between atoms: _11  and  _12
REMARK    6  A    between atoms: _14  and  _16
REMARK    7  A    between atoms: _16  and  _17
REMARK    8  A    between atoms: _16  and  _19
REMARK    9  A    between atoms: _19  and  _20
REMARK   10  A    between atoms: _22  and  _24
REMARK   11  A    between atoms: _24  and  _25
REMARK   12  A    between atoms: _28  and  _30
REMARK   13  A    between atoms: _30  and  _31
REMARK   14  A    between atoms: _30  and  _33
REMARK   15  A    between atoms: _33  and  _34
REMARK   16  A    between atoms: _39  and  _40
REMARK   17  A    between atoms: _42  and  _44
REMARK   18  A    between atoms: _44  and  _45
REMARK   19  A    between atoms: _47  and  _49
REMARK   20  A    between atoms: _49  and  _50
REMARK   21  A    between atoms: _49  and  _52
REMARK   22  A    between atoms: _52  and  _53
REMARK   23  A    between atoms: _55  and  _57
REMARK   24  A    between atoms: _57  and  _58
REMARK   25  A    between atoms: _57  and  _60
REMARK   26  A    between atoms: _63  and  _65
REMARK   27  A    between atoms: _65  and  _66
REMARK   28  A    between atoms: _65  and  _68
REMARK   29  A    between atoms: _70  and  _72
REMARK   30  A    between atoms: _72  and  _73
REMARK   31  A    between atoms: _76  and  _78
REMARK   32  A    between atoms: _78  and  _79
REMARK   33  A    between atoms: _78  and  _81
REMARK   34  A    between atoms: _81  and  _82
REMARK   35  A    between atoms: _82  and  _83
REMARK   36  A    between atoms: _83  and  _84
REMARK   37  A    between atoms: _93  and  _95
REMARK   38  A    between atoms: _95  and  _96
REMARK   39  A    between atoms: _95  and  _98
REMARK   40  A    between atoms: _101  and  _103
REMARK   41  A    between atoms: _103  and  _104
REMARK   42  A    between atoms: _107  and  _109
REMARK   43  A    between atoms: _109  and  _110
REMARK   44  A    between atoms: _109  and  _112
REMARK   45  A    between atoms: _115  and  _117
REMARK   46  A    between atoms: _117  and  _118
REMARK   47  A    between atoms: _117  and  _120
REMARK   48  A    between atoms: _120  and  _121
REMARK   49  A    between atoms: _121  and  _122
REMARK   50  A    between atoms: _122  and  _123
REMARK   51  A    between atoms: _123  and  _124
REMARK   52  A    between atoms: _128  and  _130
REMARK   53  A    between atoms: _130  and  _131
REMARK   54  A    between atoms: _130  and  _133
REMARK   55  A    between atoms: _133  and  _134
REMARK   56  A    between atoms: _134  and  _135
REMARK   57  A    between atoms: _135  and  _136
REMARK   58  A    between atoms: _136  and  _137
REMARK   59  A    between atoms: _141  and  _143
REMARK   60  A    between atoms: _143  and  _144
REMARK   61  A    between atoms: _143  and  _146
REMARK   62  A    between atoms: _146  and  _147
REMARK   63  A    between atoms: _150  and  _152
REMARK   64  A    between atoms: _152  and  _153
REMARK   65  A    between atoms: _152  and  _155
REMARK   66  A    between atoms: _155  and  _156
REMARK   67  A    between atoms: _156  and  _157
REMARK   68  A    between atoms: _157  and  _158
REMARK   69  A    between atoms: _167  and  _169
REMARK   70  A    between atoms: _169  and  _170
REMARK   71  A    between atoms: _169  and  _172
REMARK   72  A    between atoms: _172  and  _173
REMARK   73  A    between atoms: _173  and  _174
REMARK   74  A    between atoms: _174  and  _175
REMARK   75  A    between atoms: _184  and  _186
REMARK   76  A    between atoms: _186  and  _187
REMARK   77  A    between atoms: _186  and  _189
REMARK   78  A    between atoms: _189  and  _190
REMARK   79  A    between atoms: _190  and  _191
REMARK   80  A    between atoms: _194  and  _196
REMARK   81  A    between atoms: _196  and  _197
REMARK   82  A    between atoms: _196  and  _199
REMARK   83  A    between atoms: _199  and  _200
REMARK   84  A    between atoms: _203  and  _205
REMARK   85  A    between atoms: _205  and  _206
REMARK   86  A    between atoms: _205  and  _208
REMARK   87  A    between atoms: _208  and  _209
REMARK   88  A    between atoms: _209  and  _210
REMARK   89  A    between atoms: _210  and  _211
REMARK   90  A    between atoms: _220  and  _222
REMARK   91  A    between atoms: _222  and  _223
REMARK   92  A    between atoms: _222  and  _225
REMARK   93  A    between atoms: _225  and  _226
REMARK   94  A    between atoms: _229  and  _231
REMARK   95  A    between atoms: _231  and  _232
REMARK   96  A    between atoms: _231  and  _234
REMARK   97  A    between atoms: _234  and  _235
REMARK   98  A    between atoms: _238  and  _240
REMARK   99  A    between atoms: _240  and  _241
REMARK  100  A    between atoms: _240  and  _243
REMARK  101  A    between atoms: _243  and  _244
REMARK  102  A    between atoms: _244  and  _245
REMARK  103  A    between atoms: _245  and  _246
REMARK  104  A    between atoms: _246  and  _247
REMARK  105  A    between atoms: _251  and  _253
REMARK  106  A    between atoms: _253  and  _254
REMARK  107  A    between atoms: _253  and  _256
REMARK  108  A    between atoms: _256  and  _257
REMARK  109  A    between atoms: _262  and  _264
REMARK  110  A    between atoms: _264  and  _265
REMARK  111  A    between atoms: _264  and  _267
REMARK  112  A    between atoms: _267  and  _268
REMARK  113  A    between atoms: _268  and  _269
REMARK  114  A    between atoms: _271  and  _273
REMARK  115  A    between atoms: _273  and  _274
REMARK  116  A    between atoms: _273  and  _276
REMARK  117  A    between atoms: _279  and  _281
REMARK  118  A    between atoms: _281  and  _282
REMARK  119  A    between atoms: _281  and  _284
REMARK  120  A    between atoms: _284  and  _285
REMARK  121  A    between atoms: _288  and  _290
REMARK  122  A    between atoms: _290  and  _291
REMARK  123  A    between atoms: _293  and  _295
REMARK  124  A    between atoms: _295  and  _296
REMARK  125  A    between atoms: _295  and  _298
REMARK  126  A    between atoms: _298  and  _299
REMARK  127  A    between atoms: _302  and  _304
REMARK  128  A    between atoms: _304  and  _305
REMARK  129  A    between atoms: _304  and  _307
REMARK  130  A    between atoms: _307  and  _308
REMARK  131  A    between atoms: _311  and  _313
REMARK  132  A    between atoms: _313  and  _314
REMARK  133  A    between atoms: _313  and  _316
REMARK  134  A    between atoms: _316  and  _317
REMARK  135  A    between atoms: _320  and  _322
REMARK  136  A    between atoms: _322  and  _323
REMARK  137  A    between atoms: _322  and  _325
REMARK  138  A    between atoms: _325  and  _326
REMARK  139  A    between atoms: _331  and  _332
REMARK  140  A    between atoms: _334  and  _336
REMARK  141  A    between atoms: _336  and  _337
REMARK  142  A    between atoms: _336  and  _339
REMARK  143  A    between atoms: _339  and  _340
REMARK  144  A    between atoms: _343  and  _345
REMARK  145  A    between atoms: _345  and  _346
REMARK  146  A    between atoms: _345  and  _348
REMARK  147  A    between atoms: _351  and  _353
REMARK  148  A    between atoms: _353  and  _354
REMARK  149  A    between atoms: _353  and  _356
REMARK  150  A    between atoms: _356  and  _357
REMARK  151  A    between atoms: _360  and  _362
REMARK  152  A    between atoms: _362  and  _363
REMARK  153  A    between atoms: _362  and  _365
REMARK  154  A    between atoms: _365  and  _366
REMARK  155  A    between atoms: _371  and  _373
REMARK  156  A    between atoms: _373  and  _374
REMARK  157  A    between atoms: _373  and  _376
REMARK  158  A    between atoms: _376  and  _377
REMARK  159  A    between atoms: _380  and  _382
REMARK  160  A    between atoms: _382  and  _383
REMARK  161  A    between atoms: _382  and  _385
REMARK  162  A    between atoms: _385  and  _386
REMARK  163  A    between atoms: _386  and  _387
REMARK  164  A    between atoms: _389  and  _391
REMARK  165  A    between atoms: _391  and  _392
REMARK  166  A    between atoms: _394  and  _396
REMARK  167  A    between atoms: _396  and  _397
REMARK  168  A    between atoms: _400  and  _402
REMARK  169  A    between atoms: _402  and  _403
REMARK  170  A    between atoms: _402  and  _405
REMARK  171  A    between atoms: _405  and  _406
REMARK  172  A    between atoms: _409  and  _411
REMARK  173  A    between atoms: _411  and  _412
REMARK  174  A    between atoms: _411  and  _414
REMARK  175  A    between atoms: _414  and  _415
REMARK  176  A    between atoms: _418  and  _420
REMARK  177  A    between atoms: _420  and  _421
REMARK  178  A    between atoms: _420  and  _423
REMARK  179  A    between atoms: _423  and  _424
REMARK  180  A    between atoms: _429  and  _431
REMARK  181  A    between atoms: _431  and  _432
REMARK  182  A    between atoms: _431  and  _434
REMARK  183  A    between atoms: _434  and  _435
REMARK  184  A    between atoms: _440  and  _442
REMARK  185  A    between atoms: _442  and  _443
REMARK  186  A    between atoms: _442  and  _445
REMARK  187  A    between atoms: _445  and  _446
REMARK  188  A    between atoms: _449  and  _451
REMARK  189  A    between atoms: _451  and  _452
REMARK  190  A    between atoms: _451  and  _454
REMARK  191  A    between atoms: _454  and  _455
REMARK  192  A    between atoms: _458  and  _460
REMARK  193  A    between atoms: _460  and  _461
REMARK  194  A    between atoms: _460  and  _463
REMARK  195  A    between atoms: _463  and  _464
REMARK  196  A    between atoms: _470  and  _471
REMARK  197  A    between atoms: _476  and  _478
REMARK  198  A    between atoms: _478  and  _479
REMARK  199  A    between atoms: _478  and  _481
REMARK  200  A    between atoms: _481  and  _482
REMARK  201  A    between atoms: _484  and  _486
REMARK  202  A    between atoms: _486  and  _487
REMARK  203  A    between atoms: _486  and  _489
REMARK  204  A    between atoms: _489  and  _490
REMARK  205  A    between atoms: _495  and  _497
REMARK  206  A    between atoms: _497  and  _498
REMARK  207  A    between atoms: _497  and  _500
REMARK  208  A    between atoms: _500  and  _501
REMARK  209  A    between atoms: _504  and  _506
REMARK  210  A    between atoms: _506  and  _507
REMARK  211  A    between atoms: _510  and  _512
REMARK  212  A    between atoms: _512  and  _513
REMARK  213  A    between atoms: _512  and  _515
REMARK  214  A    between atoms: _518  and  _520
REMARK  215  A    between atoms: _520  and  _521
REMARK  216  A    between atoms: _520  and  _523
REMARK  217  A    between atoms: _523  and  _524
REMARK  218  A    between atoms: _529  and  _531
REMARK  219  A    between atoms: _531  and  _532
REMARK  220  A    between atoms: _531  and  _534
REMARK  221  A    between atoms: _534  and  _535
REMARK  222  A    between atoms: _535  and  _536
REMARK  223  A    between atoms: _536  and  _537
REMARK  224  A    between atoms: _537  and  _538
REMARK  225  A    between atoms: _542  and  _544
REMARK  226  A    between atoms: _544  and  _545
REMARK  227  A    between atoms: _544  and  _547
REMARK  228  A    between atoms: _547  and  _548
REMARK  229  A    between atoms: _551  and  _553
REMARK  230  A    between atoms: _553  and  _554
REMARK  231  A    between atoms: _553  and  _556
REMARK  232  A    between atoms: _556  and  _557
REMARK  233  A    between atoms: _560  and  _562
REMARK  234  A    between atoms: _562  and  _563
REMARK  235  A    between atoms: _562  and  _565
REMARK  236  A    between atoms: _565  and  _566
REMARK  237  A    between atoms: _569  and  _571
REMARK  238  A    between atoms: _571  and  _572
REMARK  239  A    between atoms: _571  and  _574
REMARK  240  A    between atoms: _574  and  _575
REMARK  241  A    between atoms: _581  and  _583
REMARK  242  A    between atoms: _583  and  _584
REMARK  243  A    between atoms: _586  and  _588
REMARK  244  A    between atoms: _588  and  _589
REMARK  245  A    between atoms: _588  and  _591
REMARK  246  A    between atoms: _591  and  _592
REMARK  247  A    between atoms: _595  and  _597
REMARK  248  A    between atoms: _597  and  _598
REMARK  249  A    between atoms: _601  and  _603
REMARK  250  A    between atoms: _603  and  _604
REMARK  251  A    between atoms: _603  and  _606
REMARK  252  A    between atoms: _606  and  _607
REMARK  253  A    between atoms: _607  and  _608
REMARK  254  A    between atoms: _608  and  _609
REMARK  255  A    between atoms: _618  and  _620
REMARK  256  A    between atoms: _620  and  _621
REMARK  257  A    between atoms: _620  and  _623
REMARK  258  A    between atoms: _623  and  _624
REMARK  259  A    between atoms: _629  and  _630
REMARK                            x       y       z     vdW  Elec       q    Type
REMARK                         _______ _______ _______ _____ _____    ______ ____
ROOT
ATOM      1  O   HOH     1      10.633  22.477  41.598  0.00  0.00    +0.000 OA
ENDROOT
TORSDOF 0
REMARK  Name = ../refined-set-2016/2yix/2yix_pocket.pdb
REMARK  259 active torsions:
REMARK  status: ('A' for Active; 'I' for Inactive)
REMARK    1  A    between atoms: _1  and  _3
REMARK    2  A    between atoms: _3  and  _4
REMARK    3  A    between atoms: _3  and  _6
REMARK    4  A    between atoms: _9  and  _11
REMARK    5  A    between atoms: _11  and  _12
REMARK    6  A    between atoms: _14  and  _16
REMARK    7  A    between atoms: _16  and  _17
REMARK    8  A    between atoms: _16  and  _19
REMARK    9  A    between atoms: _19  and  _20
REMARK   10  A    between atoms: _22  and  _24
REMARK   11  A    between atoms: _24  and  _25
REMARK   12  A    between atoms: _28  and  _30
REMARK   13  A    between atoms: _30  and  _31
REMARK   14  A    between atoms: _30  and  _33
REMARK   15  A    between atoms: _33  and  _34
REMARK   16  A    between atoms: _39  and  _40
REMARK   17  A    between atoms: _42  and  _44
REMARK   18  A    between atoms: _44  and  _45
REMARK   19  A    between atoms: _47  and  _49
REMARK   20  A    between atoms: _49  and  _50
REMARK   21  A    between atoms: _49  and  _52
REMARK   22  A    between atoms: _52  and  _53
REMARK   23  A    between atoms: _55  and  _57
REMARK   24  A    between atoms: _57  and  _58
REMARK   25  A    between atoms: _57  and  _60
REMARK   26  A    between atoms: _63  and  _65
REMARK   27  A    between atoms: _65  and  _66
REMARK   28  A    between atoms: _65  and  _68
REMARK   29  A    between atoms: _70  and  _72
REMARK   30  A    between atoms: _72  and  _73
REMARK   31  A    between atoms: _76  and  _78
REMARK   32  A    between atoms: _78  and  _79
REMARK   33  A    between atoms: _78  and  _81
REMARK   34  A    between atoms: _81  and  _82
REMARK   35  A    between atoms: _82  and  _83
REMARK   36  A    between atoms: _83  and  _84
REMARK   37  A    between atoms: _93  and  _95
REMARK   38  A    between atoms: _95  and  _96
REMARK   39  A    between atoms: _95  and  _98
REMARK   40  A    between atoms: _101  and  _103
REMARK   41  A    between atoms: _103  and  _104
REMARK   42  A    between atoms: _107  and  _109
REMARK   43  A    between atoms: _109  and  _110
REMARK   44  A    between atoms: _109  and  _112
REMARK   45  A    between atoms: _115  and  _117
REMARK   46  A    between atoms: _117  and  _118
REMARK   47  A    between atoms: _117  and  _120
REMARK   48  A    between atoms: _120  and  _121
REMARK   49  A    between atoms: _121  and  _122
REMARK   50  A    between atoms: _122  and  _123
REMARK   51  A    between atoms: _123  and  _124
REMARK   52  A    between atoms: _128  and  _130
REMARK   53  A    between atoms: _130  and  _131
REMARK   54  A    between atoms: _130  and  _133
REMARK   55  A    between atoms: _133  and  _134
REMARK   56  A    between atoms: _134  and  _135
REMARK   57  A    between atoms: _135  and  _136
REMARK   58  A    between atoms: _136  and  _137
REMARK   59  A    between atoms: _141  and  _143
REMARK   60  A    between atoms: _143  and  _144
REMARK   61  A    between atoms: _143  and  _146
REMARK   62  A    between atoms: _146  and  _147
REMARK   63  A    between atoms: _150  and  _152
REMARK   64  A    between atoms: _152  and  _153
REMARK   65  A    between atoms: _152  and  _155
REMARK   66  A    between atoms: _155  and  _156
REMARK   67  A    between atoms: _156  and  _157
REMARK   68  A    between atoms: _157  and  _158
REMARK   69  A    between atoms: _167  and  _169
REMARK   70  A    between atoms: _169  and  _170
REMARK   71  A    between atoms: _169  and  _172
REMARK   72  A    between atoms: _172  and  _173
REMARK   73  A    between atoms: _173  and  _174
REMARK   74  A    between atoms: _174  and  _175
REMARK   75  A    between atoms: _184  and  _186
REMARK   76  A    between atoms: _186  and  _187
REMARK   77  A    between atoms: _186  and  _189
REMARK   78  A    between atoms: _189  and  _190
REMARK   79  A    between atoms: _190  and  _191
REMARK   80  A    between atoms: _194  and  _196
REMARK   81  A    between atoms: _196  and  _197
REMARK   82  A    between atoms: _196  and  _199
REMARK   83  A    between atoms: _199  and  _200
REMARK   84  A    between atoms: _203  and  _205
REMARK   85  A    between atoms: _205  and  _206
REMARK   86  A    between atoms: _205  and  _208
REMARK   87  A    between atoms: _208  and  _209
REMARK   88  A    between atoms: _209  and  _210
REMARK   89  A    between atoms: _210  and  _211
REMARK   90  A    between atoms: _220  and  _222
REMARK   91  A    between atoms: _222  and  _223
REMARK   92  A    between atoms: _222  and  _225
REMARK   93  A    between atoms: _225  and  _226
REMARK   94  A    between atoms: _229  and  _231
REMARK   95  A    between atoms: _231  and  _232
REMARK   96  A    between atoms: _231  and  _234
REMARK   97  A    between atoms: _234  and  _235
REMARK   98  A    between atoms: _238  and  _240
REMARK   99  A    between atoms: _240  and  _241
REMARK  100  A    between atoms: _240  and  _243
REMARK  101  A    between atoms: _243  and  _244
REMARK  102  A    between atoms: _244  and  _245
REMARK  103  A    between atoms: _245  and  _246
REMARK  104  A    between atoms: _246  and  _247
REMARK  105  A    between atoms: _251  and  _253
REMARK  106  A    between atoms: _253  and  _254
REMARK  107  A    between atoms: _253  and  _256
REMARK  108  A    between atoms: _256  and  _257
REMARK  109  A    between atoms: _262  and  _264
REMARK  110  A    between atoms: _264  and  _265
REMARK  111  A    between atoms: _264  and  _267
REMARK  112  A    between atoms: _267  and  _268
REMARK  113  A    between atoms: _268  and  _269
REMARK  114  A    between atoms: _271  and  _273
REMARK  115  A    between atoms: _273  and  _274
REMARK  116  A    between atoms: _273  and  _276
REMARK  117  A    between atoms: _279  and  _281
REMARK  118  A    between atoms: _281  and  _282
REMARK  119  A    between atoms: _281  and  _284
REMARK  120  A    between atoms: _284  and  _285
REMARK  121  A    between atoms: _288  and  _290
REMARK  122  A    between atoms: _290  and  _291
REMARK  123  A    between atoms: _293  and  _295
REMARK  124  A    between atoms: _295  and  _296
REMARK  125  A    between atoms: _295  and  _298
REMARK  126  A    between atoms: _298  and  _299
REMARK  127  A    between atoms: _302  and  _304
REMARK  128  A    between atoms: _304  and  _305
REMARK  129  A    between atoms: _304  and  _307
REMARK  130  A    between atoms: _307  and  _308
REMARK  131  A    between atoms: _311  and  _313
REMARK  132  A    between atoms: _313  and  _314
REMARK  133  A    between atoms: _313  and  _316
REMARK  134  A    between atoms: _316  and  _317
REMARK  135  A    between atoms: _320  and  _322
REMARK  136  A    between atoms: _322  and  _323
REMARK  137  A    between atoms: _322  and  _325
REMARK  138  A    between atoms: _325  and  _326
REMARK  139  A    between atoms: _331  and  _332
REMARK  140  A    between atoms: _334  and  _336
REMARK  141  A    between atoms: _336  and  _337
REMARK  142  A    between atoms: _336  and  _339
REMARK  143  A    between atoms: _339  and  _340
REMARK  144  A    between atoms: _343  and  _345
REMARK  145  A    between atoms: _345  and  _346
REMARK  146  A    between atoms: _345  and  _348
REMARK  147  A    between atoms: _351  and  _353
REMARK  148  A    between atoms: _353  and  _354
REMARK  149  A    between atoms: _353  and  _356
REMARK  150  A    between atoms: _356  and  _357
REMARK  151  A    between atoms: _360  and  _362
REMARK  152  A    between atoms: _362  and  _363
REMARK  153  A    between atoms: _362  and  _365
REMARK  154  A    between atoms: _365  and  _366
REMARK  155  A    between atoms: _371  and  _373
REMARK  156  A    between atoms: _373  and  _374
REMARK  157  A    between atoms: _373  and  _376
REMARK  158  A    between atoms: _376  and  _377
REMARK  159  A    between atoms: _380  and  _382
REMARK  160  A    between atoms: _382  and  _383
REMARK  161  A    between atoms: _382  and  _385
REMARK  162  A    between atoms: _385  and  _386
REMARK  163  A    between atoms: _386  and  _387
REMARK  164  A    between atoms: _389  and  _391
REMARK  165  A    between atoms: _391  and  _392
REMARK  166  A    between atoms: _394  and  _396
REMARK  167  A    between atoms: _396  and  _397
REMARK  168  A    between atoms: _400  and  _402
REMARK  169  A    between atoms: _402  and  _403
REMARK  170  A    between atoms: _402  and  _405
REMARK  171  A    between atoms: _405  and  _406
REMARK  172  A    between atoms: _409  and  _411
REMARK  173  A    between atoms: _411  and  _412
REMARK  174  A    between atoms: _411  and  _414
REMARK  175  A    between atoms: _414  and  _415
REMARK  176  A    between atoms: _418  and  _420
REMARK  177  A    between atoms: _420  and  _421
REMARK  178  A    between atoms: _420  and  _423
REMARK  179  A    between atoms: _423  and  _424
REMARK  180  A    between atoms: _429  and  _431
REMARK  181  A    between atoms: _431  and  _432
REMARK  182  A    between atoms: _431  and  _434
REMARK  183  A    between atoms: _434  and  _435
REMARK  184  A    between atoms: _440  and  _442
REMARK  185  A    between atoms: _442  and  _443
REMARK  186  A    between atoms: _442  and  _445
REMARK  187  A    between atoms: _445  and  _446
REMARK  188  A    between atoms: _449  and  _451
REMARK  189  A    between atoms: _451  and  _452
REMARK  190  A    between atoms: _451  and  _454
REMARK  191  A    between atoms: _454  and  _455
REMARK  192  A    between atoms: _458  and  _460
REMARK  193  A    between atoms: _460  and  _461
REMARK  194  A    between atoms: _460  and  _463
REMARK  195  A    between atoms: _463  and  _464
REMARK  196  A    between atoms: _470  and  _471
REMARK  197  A    between atoms: _476  and  _478
REMARK  198  A    between atoms: _478  and  _479
REMARK  199  A    between atoms: _478  and  _481
REMARK  200  A    between atoms: _481  and  _482
REMARK  201  A    between atoms: _484  and  _486
REMARK  202  A    between atoms: _486  and  _487
REMARK  203  A    between atoms: _486  and  _489
REMARK  204  A    between atoms: _489  and  _490
REMARK  205  A    between atoms: _495  and  _497
REMARK  206  A    between atoms: _497  and  _498
REMARK  207  A    between atoms: _497  and  _500
REMARK  208  A    between atoms: _500  and  _501
REMARK  209  A    between atoms: _504  and  _506
REMARK  210  A    between atoms: _506  and  _507
REMARK  211  A    between atoms: _510  and  _512
REMARK  212  A    between atoms: _512  and  _513
REMARK  213  A    between atoms: _512  and  _515
REMARK  214  A    between atoms: _518  and  _520
REMARK  215  A    between atoms: _520  and  _521
REMARK  216  A    between atoms: _520  and  _523
REMARK  217  A    between atoms: _523  and  _524
REMARK  218  A    between atoms: _529  and  _531
REMARK  219  A    between atoms: _531  and  _532
REMARK  220  A    between atoms: _531  and  _534
REMARK  221  A    between atoms: _534  and  _535
REMARK  222  A    between atoms: _535  and  _536
REMARK  223  A    between atoms: _536  and  _537
REMARK  224  A    between atoms: _537  and  _538
REMARK  225  A    between atoms: _542  and  _544
REMARK  226  A    between atoms: _544  and  _545
REMARK  227  A    between atoms: _544  and  _547
REMARK  228  A    between atoms: _547  and  _548
REMARK  229  A    between atoms: _551  and  _553
REMARK  230  A    between atoms: _553  and  _554
REMARK  231  A    between atoms: _553  and  _556
REMARK  232  A    between atoms: _556  and  _557
REMARK  233  A    between atoms: _560  and  _562
REMARK  234  A    between atoms: _562  and  _563
REMARK  235  A    between atoms: _562  and  _565
REMARK  236  A    between atoms: _565  and  _566
REMARK  237  A    between atoms: _569  and  _571
REMARK  238  A    between atoms: _571  and  _572
REMARK  239  A    between atoms: _571  and  _574
REMARK  240  A    between atoms: _574  and  _575
REMARK  241  A    between atoms: _581  and  _583
REMARK  242  A    between atoms: _583  and  _584
REMARK  243  A    between atoms: _586  and  _588
REMARK  244  A    between atoms: _588  and  _589
REMARK  245  A    between atoms: _588  and  _591
REMARK  246  A    between atoms: _591  and  _592
REMARK  247  A    between atoms: _595  and  _597
REMARK  248  A    between atoms: _597  and  _598
REMARK  249  A    between atoms: _601  and  _603
REMARK  250  A    between atoms: _603  and  _604
REMARK  251  A    between atoms: _603  and  _606
REMARK  252  A    between atoms: _606  and  _607
REMARK  253  A    between atoms: _607  and  _608
REMARK  254  A    between atoms: _608  and  _609
REMARK  255  A    between atoms: _618  and  _620
REMARK  256  A    between atoms: _620  and  _621
REMARK  257  A    between atoms: _620  and  _623
REMARK  258  A    between atoms: _623  and  _624
REMARK  259  A    between atoms: _629  and  _630
REMARK                            x       y       z     vdW  Elec       q    Type
REMARK                         _______ _______ _______ _____ _____    ______ ____
ROOT
ATOM      1  O   HOH     1       3.433  23.391  36.069  0.00  0.00    +0.000 OA
ENDROOT
TORSDOF 0
REMARK  Name = ../refined-set-2016/2yix/2yix_pocket.pdb
REMARK  259 active torsions:
REMARK  status: ('A' for Active; 'I' for Inactive)
REMARK    1  A    between atoms: _1  and  _3
REMARK    2  A    between atoms: _3  and  _4
REMARK    3  A    between atoms: _3  and  _6
REMARK    4  A    between atoms: _9  and  _11
REMARK    5  A    between atoms: _11  and  _12
REMARK    6  A    between atoms: _14  and  _16
REMARK    7  A    between atoms: _16  and  _17
REMARK    8  A    between atoms: _16  and  _19
REMARK    9  A    between atoms: _19  and  _20
REMARK   10  A    between atoms: _22  and  _24
REMARK   11  A    between atoms: _24  and  _25
REMARK   12  A    between atoms: _28  and  _30
REMARK   13  A    between atoms: _30  and  _31
REMARK   14  A    between atoms: _30  and  _33
REMARK   15  A    between atoms: _33  and  _34
REMARK   16  A    between atoms: _39  and  _40
REMARK   17  A    between atoms: _42  and  _44
REMARK   18  A    between atoms: _44  and  _45
REMARK   19  A    between atoms: _47  and  _49
REMARK   20  A    between atoms: _49  and  _50
REMARK   21  A    between atoms: _49  and  _52
REMARK   22  A    between atoms: _52  and  _53
REMARK   23  A    between atoms: _55  and  _57
REMARK   24  A    between atoms: _57  and  _58
REMARK   25  A    between atoms: _57  and  _60
REMARK   26  A    between atoms: _63  and  _65
REMARK   27  A    between atoms: _65  and  _66
REMARK   28  A    between atoms: _65  and  _68
REMARK   29  A    between atoms: _70  and  _72
REMARK   30  A    between atoms: _72  and  _73
REMARK   31  A    between atoms: _76  and  _78
REMARK   32  A    between atoms: _78  and  _79
REMARK   33  A    between atoms: _78  and  _81
REMARK   34  A    between atoms: _81  and  _82
REMARK   35  A    between atoms: _82  and  _83
REMARK   36  A    between atoms: _83  and  _84
REMARK   37  A    between atoms: _93  and  _95
REMARK   38  A    between atoms: _95  and  _96
REMARK   39  A    between atoms: _95  and  _98
REMARK   40  A    between atoms: _101  and  _103
REMARK   41  A    between atoms: _103  and  _104
REMARK   42  A    between atoms: _107  and  _109
REMARK   43  A    between atoms: _109  and  _110
REMARK   44  A    between atoms: _109  and  _112
REMARK   45  A    between atoms: _115  and  _117
REMARK   46  A    between atoms: _117  and  _118
REMARK   47  A    between atoms: _117  and  _120
REMARK   48  A    between atoms: _120  and  _121
REMARK   49  A    between atoms: _121  and  _122
REMARK   50  A    between atoms: _122  and  _123
REMARK   51  A    between atoms: _123  and  _124
REMARK   52  A    between atoms: _128  and  _130
REMARK   53  A    between atoms: _130  and  _131
REMARK   54  A    between atoms: _130  and  _133
REMARK   55  A    between atoms: _133  and  _134
REMARK   56  A    between atoms: _134  and  _135
REMARK   57  A    between atoms: _135  and  _136
REMARK   58  A    between atoms: _136  and  _137
REMARK   59  A    between atoms: _141  and  _143
REMARK   60  A    between atoms: _143  and  _144
REMARK   61  A    between atoms: _143  and  _146
REMARK   62  A    between atoms: _146  and  _147
REMARK   63  A    between atoms: _150  and  _152
REMARK   64  A    between atoms: _152  and  _153
REMARK   65  A    between atoms: _152  and  _155
REMARK   66  A    between atoms: _155  and  _156
REMARK   67  A    between atoms: _156  and  _157
REMARK   68  A    between atoms: _157  and  _158
REMARK   69  A    between atoms: _167  and  _169
REMARK   70  A    between atoms: _169  and  _170
REMARK   71  A    between atoms: _169  and  _172
REMARK   72  A    between atoms: _172  and  _173
REMARK   73  A    between atoms: _173  and  _174
REMARK   74  A    between atoms: _174  and  _175
REMARK   75  A    between atoms: _184  and  _186
REMARK   76  A    between atoms: _186  and  _187
REMARK   77  A    between atoms: _186  and  _189
REMARK   78  A    between atoms: _189  and  _190
REMARK   79  A    between atoms: _190  and  _191
REMARK   80  A    between atoms: _194  and  _196
REMARK   81  A    between atoms: _196  and  _197
REMARK   82  A    between atoms: _196  and  _199
REMARK   83  A    between atoms: _199  and  _200
REMARK   84  A    between atoms: _203  and  _205
REMARK   85  A    between atoms: _205  and  _206
REMARK   86  A    between atoms: _205  and  _208
REMARK   87  A    between atoms: _208  and  _209
REMARK   88  A    between atoms: _209  and  _210
REMARK   89  A    between atoms: _210  and  _211
REMARK   90  A    between atoms: _220  and  _222
REMARK   91  A    between atoms: _222  and  _223
REMARK   92  A    between atoms: _222  and  _225
REMARK   93  A    between atoms: _225  and  _226
REMARK   94  A    between atoms: _229  and  _231
REMARK   95  A    between atoms: _231  and  _232
REMARK   96  A    between atoms: _231  and  _234
REMARK   97  A    between atoms: _234  and  _235
REMARK   98  A    between atoms: _238  and  _240
REMARK   99  A    between atoms: _240  and  _241
REMARK  100  A    between atoms: _240  and  _243
REMARK  101  A    between atoms: _243  and  _244
REMARK  102  A    between atoms: _244  and  _245
REMARK  103  A    between atoms: _245  and  _246
REMARK  104  A    between atoms: _246  and  _247
REMARK  105  A    between atoms: _251  and  _253
REMARK  106  A    between atoms: _253  and  _254
REMARK  107  A    between atoms: _253  and  _256
REMARK  108  A    between atoms: _256  and  _257
REMARK  109  A    between atoms: _262  and  _264
REMARK  110  A    between atoms: _264  and  _265
REMARK  111  A    between atoms: _264  and  _267
REMARK  112  A    between atoms: _267  and  _268
REMARK  113  A    between atoms: _268  and  _269
REMARK  114  A    between atoms: _271  and  _273
REMARK  115  A    between atoms: _273  and  _274
REMARK  116  A    between atoms: _273  and  _276
REMARK  117  A    between atoms: _279  and  _281
REMARK  118  A    between atoms: _281  and  _282
REMARK  119  A    between atoms: _281  and  _284
REMARK  120  A    between atoms: _284  and  _285
REMARK  121  A    between atoms: _288  and  _290
REMARK  122  A    between atoms: _290  and  _291
REMARK  123  A    between atoms: _293  and  _295
REMARK  124  A    between atoms: _295  and  _296
REMARK  125  A    between atoms: _295  and  _298
REMARK  126  A    between atoms: _298  and  _299
REMARK  127  A    between atoms: _302  and  _304
REMARK  128  A    between atoms: _304  and  _305
REMARK  129  A    between atoms: _304  and  _307
REMARK  130  A    between atoms: _307  and  _308
REMARK  131  A    between atoms: _311  and  _313
REMARK  132  A    between atoms: _313  and  _314
REMARK  133  A    between atoms: _313  and  _316
REMARK  134  A    between atoms: _316  and  _317
REMARK  135  A    between atoms: _320  and  _322
REMARK  136  A    between atoms: _322  and  _323
REMARK  137  A    between atoms: _322  and  _325
REMARK  138  A    between atoms: _325  and  _326
REMARK  139  A    between atoms: _331  and  _332
REMARK  140  A    between atoms: _334  and  _336
REMARK  141  A    between atoms: _336  and  _337
REMARK  142  A    between atoms: _336  and  _339
REMARK  143  A    between atoms: _339  and  _340
REMARK  144  A    between atoms: _343  and  _345
REMARK  145  A    between atoms: _345  and  _346
REMARK  146  A    between atoms: _345  and  _348
REMARK  147  A    between atoms: _351  and  _353
REMARK  148  A    between atoms: _353  and  _354
REMARK  149  A    between atoms: _353  and  _356
REMARK  150  A    between atoms: _356  and  _357
REMARK  151  A    between atoms: _360  and  _362
REMARK  152  A    between atoms: _362  and  _363
REMARK  153  A    between atoms: _362  and  _365
REMARK  154  A    between atoms: _365  and  _366
REMARK  155  A    between atoms: _371  and  _373
REMARK  156  A    between atoms: _373  and  _374
REMARK  157  A    between atoms: _373  and  _376
REMARK  158  A    between atoms: _376  and  _377
REMARK  159  A    between atoms: _380  and  _382
REMARK  160  A    between atoms: _382  and  _383
REMARK  161  A    between atoms: _382  and  _385
REMARK  162  A    between atoms: _385  and  _386
REMARK  163  A    between atoms: _386  and  _387
REMARK  164  A    between atoms: _389  and  _391
REMARK  165  A    between atoms: _391  and  _392
REMARK  166  A    between atoms: _394  and  _396
REMARK  167  A    between atoms: _396  and  _397
REMARK  168  A    between atoms: _400  and  _402
REMARK  169  A    between atoms: _402  and  _403
REMARK  170  A    between atoms: _402  and  _405
REMARK  171  A    between atoms: _405  and  _406
REMARK  172  A    between atoms: _409  and  _411
REMARK  173  A    between atoms: _411  and  _412
REMARK  174  A    between atoms: _411  and  _414
REMARK  175  A    between atoms: _414  and  _415
REMARK  176  A    between atoms: _418  and  _420
REMARK  177  A    between atoms: _420  and  _421
REMARK  178  A    between atoms: _420  and  _423
REMARK  179  A    between atoms: _423  and  _424
REMARK  180  A    between atoms: _429  and  _431
REMARK  181  A    between atoms: _431  and  _432
REMARK  182  A    between atoms: _431  and  _434
REMARK  183  A    between atoms: _434  and  _435
REMARK  184  A    between atoms: _440  and  _442
REMARK  185  A    between atoms: _442  and  _443
REMARK  186  A    between atoms: _442  and  _445
REMARK  187  A    between atoms: _445  and  _446
REMARK  188  A    between atoms: _449  and  _451
REMARK  189  A    between atoms: _451  and  _452
REMARK  190  A    between atoms: _451  and  _454
REMARK  191  A    between atoms: _454  and  _455
REMARK  192  A    between atoms: _458  and  _460
REMARK  193  A    between atoms: _460  and  _461
REMARK  194  A    between atoms: _460  and  _463
REMARK  195  A    between atoms: _463  and  _464
REMARK  196  A    between atoms: _470  and  _471
REMARK  197  A    between atoms: _476  and  _478
REMARK  198  A    between atoms: _478  and  _479
REMARK  199  A    between atoms: _478  and  _481
REMARK  200  A    between atoms: _481  and  _482
REMARK  201  A    between atoms: _484  and  _486
REMARK  202  A    between atoms: _486  and  _487
REMARK  203  A    between atoms: _486  and  _489
REMARK  204  A    between atoms: _489  and  _490
REMARK  205  A    between atoms: _495  and  _497
REMARK  206  A    between atoms: _497  and  _498
REMARK  207  A    between atoms: _497  and  _500
REMARK  208  A    between atoms: _500  and  _501
REMARK  209  A    between atoms: _504  and  _506
REMARK  210  A    between atoms: _506  and  _507
REMARK  211  A    between atoms: _510  and  _512
REMARK  212  A    between atoms: _512  and  _513
REMARK  213  A    between atoms: _512  and  _515
REMARK  214  A    between atoms: _518  and  _520
REMARK  215  A    between atoms: _520  and  _521
REMARK  216  A    between atoms: _520  and  _523
REMARK  217  A    between atoms: _523  and  _524
REMARK  218  A    between atoms: _529  and  _531
REMARK  219  A    between atoms: _531  and  _532
REMARK  220  A    between atoms: _531  and  _534
REMARK  221  A    between atoms: _534  and  _535
REMARK  222  A    between atoms: _535  and  _536
REMARK  223  A    between atoms: _536  and  _537
REMARK  224  A    between atoms: _537  and  _538
REMARK  225  A    between atoms: _542  and  _544
REMARK  226  A    between atoms: _544  and  _545
REMARK  227  A    between atoms: _544  and  _547
REMARK  228  A    between atoms: _547  and  _548
REMARK  229  A    between atoms: _551  and  _553
REMARK  230  A    between atoms: _553  and  _554
REMARK  231  A    between atoms: _553  and  _556
REMARK  232  A    between atoms: _556  and  _557
REMARK  233  A    between atoms: _560  and  _562
REMARK  234  A    between atoms: _562  and  _563
REMARK  235  A    between atoms: _562  and  _565
REMARK  236  A    between atoms: _565  and  _566
REMARK  237  A    between atoms: _569  and  _571
REMARK  238  A    between atoms: _571  and  _572
REMARK  239  A    between atoms: _571  and  _574
REMARK  240  A    between atoms: _574  and  _575
REMARK  241  A    between atoms: _581  and  _583
REMARK  242  A    between atoms: _583  and  _584
REMARK  243  A    between atoms: _586  and  _588
REMARK  244  A    between atoms: _588  and  _589
REMARK  245  A    between atoms: _588  and  _591
REMARK  246  A    between atoms: _591  and  _592
REMARK  247  A    between atoms: _595  and  _597
REMARK  248  A    between atoms: _597  and  _598
REMARK  249  A    between atoms: _601  and  _603
REMARK  250  A    between atoms: _603  and  _604
REMARK  251  A    between atoms: _603  and  _606
REMARK  252  A    between atoms: _606  and  _607
REMARK  253  A    between atoms: _607  and  _608
REMARK  254  A    between atoms: _608  and  _609
REMARK  255  A    between atoms: _618  and  _620
REMARK  256  A    between atoms: _620  and  _621
REMARK  257  A    between atoms: _620  and  _623
REMARK  258  A    between atoms: _623  and  _624
REMARK  259  A    between atoms: _629  and  _630
REMARK                            x       y       z     vdW  Elec       q    Type
REMARK                         _______ _______ _______ _____ _____    ______ ____
ROOT
ATOM      1  O   HOH     1       8.435  23.919  33.430  0.00  0.00    +0.000 OA
ENDROOT
TORSDOF 0
REMARK  Name = ../refined-set-2016/2yix/2yix_pocket.pdb
REMARK  259 active torsions:
REMARK  status: ('A' for Active; 'I' for Inactive)
REMARK    1  A    between atoms: _1  and  _3
REMARK    2  A    between atoms: _3  and  _4
REMARK    3  A    between atoms: _3  and  _6
REMARK    4  A    between atoms: _9  and  _11
REMARK    5  A    between atoms: _11  and  _12
REMARK    6  A    between atoms: _14  and  _16
REMARK    7  A    between atoms: _16  and  _17
REMARK    8  A    between atoms: _16  and  _19
REMARK    9  A    between atoms: _19  and  _20
REMARK   10  A    between atoms: _22  and  _24
REMARK   11  A    between atoms: _24  and  _25
REMARK   12  A    between atoms: _28  and  _30
REMARK   13  A    between atoms: _30  and  _31
REMARK   14  A    between atoms: _30  and  _33
REMARK   15  A    between atoms: _33  and  _34
REMARK   16  A    between atoms: _39  and  _40
REMARK   17  A    between atoms: _42  and  _44
REMARK   18  A    between atoms: _44  and  _45
REMARK   19  A    between atoms: _47  and  _49
REMARK   20  A    between atoms: _49  and  _50
REMARK   21  A    between atoms: _49  and  _52
REMARK   22  A    between atoms: _52  and  _53
REMARK   23  A    between atoms: _55  and  _57
REMARK   24  A    between atoms: _57  and  _58
REMARK   25  A    between atoms: _57  and  _60
REMARK   26  A    between atoms: _63  and  _65
REMARK   27  A    between atoms: _65  and  _66
REMARK   28  A    between atoms: _65  and  _68
REMARK   29  A    between atoms: _70  and  _72
REMARK   30  A    between atoms: _72  and  _73
REMARK   31  A    between atoms: _76  and  _78
REMARK   32  A    between atoms: _78  and  _79
REMARK   33  A    between atoms: _78  and  _81
REMARK   34  A    between atoms: _81  and  _82
REMARK   35  A    between atoms: _82  and  _83
REMARK   36  A    between atoms: _83  and  _84
REMARK   37  A    between atoms: _93  and  _95
REMARK   38  A    between atoms: _95  and  _96
REMARK   39  A    between atoms: _95  and  _98
REMARK   40  A    between atoms: _101  and  _103
REMARK   41  A    between atoms: _103  and  _104
REMARK   42  A    between atoms: _107  and  _109
REMARK   43  A    between atoms: _109  and  _110
REMARK   44  A    between atoms: _109  and  _112
REMARK   45  A    between atoms: _115  and  _117
REMARK   46  A    between atoms: _117  and  _118
REMARK   47  A    between atoms: _117  and  _120
REMARK   48  A    between atoms: _120  and  _121
REMARK   49  A    between atoms: _121  and  _122
REMARK   50  A    between atoms: _122  and  _123
REMARK   51  A    between atoms: _123  and  _124
REMARK   52  A    between atoms: _128  and  _130
REMARK   53  A    between atoms: _130  and  _131
REMARK   54  A    between atoms: _130  and  _133
REMARK   55  A    between atoms: _133  and  _134
REMARK   56  A    between atoms: _134  and  _135
REMARK   57  A    between atoms: _135  and  _136
REMARK   58  A    between atoms: _136  and  _137
REMARK   59  A    between atoms: _141  and  _143
REMARK   60  A    between atoms: _143  and  _144
REMARK   61  A    between atoms: _143  and  _146
REMARK   62  A    between atoms: _146  and  _147
REMARK   63  A    between atoms: _150  and  _152
REMARK   64  A    between atoms: _152  and  _153
REMARK   65  A    between atoms: _152  and  _155
REMARK   66  A    between atoms: _155  and  _156
REMARK   67  A    between atoms: _156  and  _157
REMARK   68  A    between atoms: _157  and  _158
REMARK   69  A    between atoms: _167  and  _169
REMARK   70  A    between atoms: _169  and  _170
REMARK   71  A    between atoms: _169  and  _172
REMARK   72  A    between atoms: _172  and  _173
REMARK   73  A    between atoms: _173  and  _174
REMARK   74  A    between atoms: _174  and  _175
REMARK   75  A    between atoms: _184  and  _186
REMARK   76  A    between atoms: _186  and  _187
REMARK   77  A    between atoms: _186  and  _189
REMARK   78  A    between atoms: _189  and  _190
REMARK   79  A    between atoms: _190  and  _191
REMARK   80  A    between atoms: _194  and  _196
REMARK   81  A    between atoms: _196  and  _197
REMARK   82  A    between atoms: _196  and  _199
REMARK   83  A    between atoms: _199  and  _200
REMARK   84  A    between atoms: _203  and  _205
REMARK   85  A    between atoms: _205  and  _206
REMARK   86  A    between atoms: _205  and  _208
REMARK   87  A    between atoms: _208  and  _209
REMARK   88  A    between atoms: _209  and  _210
REMARK   89  A    between atoms: _210  and  _211
REMARK   90  A    between atoms: _220  and  _222
REMARK   91  A    between atoms: _222  and  _223
REMARK   92  A    between atoms: _222  and  _225
REMARK   93  A    between atoms: _225  and  _226
REMARK   94  A    between atoms: _229  and  _231
REMARK   95  A    between atoms: _231  and  _232
REMARK   96  A    between atoms: _231  and  _234
REMARK   97  A    between atoms: _234  and  _235
REMARK   98  A    between atoms: _238  and  _240
REMARK   99  A    between atoms: _240  and  _241
REMARK  100  A    between atoms: _240  and  _243
REMARK  101  A    between atoms: _243  and  _244
REMARK  102  A    between atoms: _244  and  _245
REMARK  103  A    between atoms: _245  and  _246
REMARK  104  A    between atoms: _246  and  _247
REMARK  105  A    between atoms: _251  and  _253
REMARK  106  A    between atoms: _253  and  _254
REMARK  107  A    between atoms: _253  and  _256
REMARK  108  A    between atoms: _256  and  _257
REMARK  109  A    between atoms: _262  and  _264
REMARK  110  A    between atoms: _264  and  _265
REMARK  111  A    between atoms: _264  and  _267
REMARK  112  A    between atoms: _267  and  _268
REMARK  113  A    between atoms: _268  and  _269
REMARK  114  A    between atoms: _271  and  _273
REMARK  115  A    between atoms: _273  and  _274
REMARK  116  A    between atoms: _273  and  _276
REMARK  117  A    between atoms: _279  and  _281
REMARK  118  A    between atoms: _281  and  _282
REMARK  119  A    between atoms: _281  and  _284
REMARK  120  A    between atoms: _284  and  _285
REMARK  121  A    between atoms: _288  and  _290
REMARK  122  A    between atoms: _290  and  _291
REMARK  123  A    between atoms: _293  and  _295
REMARK  124  A    between atoms: _295  and  _296
REMARK  125  A    between atoms: _295  and  _298
REMARK  126  A    between atoms: _298  and  _299
REMARK  127  A    between atoms: _302  and  _304
REMARK  128  A    between atoms: _304  and  _305
REMARK  129  A    between atoms: _304  and  _307
REMARK  130  A    between atoms: _307  and  _308
REMARK  131  A    between atoms: _311  and  _313
REMARK  132  A    between atoms: _313  and  _314
REMARK  133  A    between atoms: _313  and  _316
REMARK  134  A    between atoms: _316  and  _317
REMARK  135  A    between atoms: _320  and  _322
REMARK  136  A    between atoms: _322  and  _323
REMARK  137  A    between atoms: _322  and  _325
REMARK  138  A    between atoms: _325  and  _326
REMARK  139  A    between atoms: _331  and  _332
REMARK  140  A    between atoms: _334  and  _336
REMARK  141  A    between atoms: _336  and  _337
REMARK  142  A    between atoms: _336  and  _339
REMARK  143  A    between atoms: _339  and  _340
REMARK  144  A    between atoms: _343  and  _345
REMARK  145  A    between atoms: _345  and  _346
REMARK  146  A    between atoms: _345  and  _348
REMARK  147  A    between atoms: _351  and  _353
REMARK  148  A    between atoms: _353  and  _354
REMARK  149  A    between atoms: _353  and  _356
REMARK  150  A    between atoms: _356  and  _357
REMARK  151  A    between atoms: _360  and  _362
REMARK  152  A    between atoms: _362  and  _363
REMARK  153  A    between atoms: _362  and  _365
REMARK  154  A    between atoms: _365  and  _366
REMARK  155  A    between atoms: _371  and  _373
REMARK  156  A    between atoms: _373  and  _374
REMARK  157  A    between atoms: _373  and  _376
REMARK  158  A    between atoms: _376  and  _377
REMARK  159  A    between atoms: _380  and  _382
REMARK  160  A    between atoms: _382  and  _383
REMARK  161  A    between atoms: _382  and  _385
REMARK  162  A    between atoms: _385  and  _386
REMARK  163  A    between atoms: _386  and  _387
REMARK  164  A    between atoms: _389  and  _391
REMARK  165  A    between atoms: _391  and  _392
REMARK  166  A    between atoms: _394  and  _396
REMARK  167  A    between atoms: _396  and  _397
REMARK  168  A    between atoms: _400  and  _402
REMARK  169  A    between atoms: _402  and  _403
REMARK  170  A    between atoms: _402  and  _405
REMARK  171  A    between atoms: _405  and  _406
REMARK  172  A    between atoms: _409  and  _411
REMARK  173  A    between atoms: _411  and  _412
REMARK  174  A    between atoms: _411  and  _414
REMARK  175  A    between atoms: _414  and  _415
REMARK  176  A    between atoms: _418  and  _420
REMARK  177  A    between atoms: _420  and  _421
REMARK  178  A    between atoms: _420  and  _423
REMARK  179  A    between atoms: _423  and  _424
REMARK  180  A    between atoms: _429  and  _431
REMARK  181  A    between atoms: _431  and  _432
REMARK  182  A    between atoms: _431  and  _434
REMARK  183  A    between atoms: _434  and  _435
REMARK  184  A    between atoms: _440  and  _442
REMARK  185  A    between atoms: _442  and  _443
REMARK  186  A    between atoms: _442  and  _445
REMARK  187  A    between atoms: _445  and  _446
REMARK  188  A    between atoms: _449  and  _451
REMARK  189  A    between atoms: _451  and  _452
REMARK  190  A    between atoms: _451  and  _454
REMARK  191  A    between atoms: _454  and  _455
REMARK  192  A    between atoms: _458  and  _460
REMARK  193  A    between atoms: _460  and  _461
REMARK  194  A    between atoms: _460  and  _463
REMARK  195  A    between atoms: _463  and  _464
REMARK  196  A    between atoms: _470  and  _471
REMARK  197  A    between atoms: _476  and  _478
REMARK  198  A    between atoms: _478  and  _479
REMARK  199  A    between atoms: _478  and  _481
REMARK  200  A    between atoms: _481  and  _482
REMARK  201  A    between atoms: _484  and  _486
REMARK  202  A    between atoms: _486  and  _487
REMARK  203  A    between atoms: _486  and  _489
REMARK  204  A    between atoms: _489  and  _490
REMARK  205  A    between atoms: _495  and  _497
REMARK  206  A    between atoms: _497  and  _498
REMARK  207  A    between atoms: _497  and  _500
REMARK  208  A    between atoms: _500  and  _501
REMARK  209  A    between atoms: _504  and  _506
REMARK  210  A    between atoms: _506  and  _507
REMARK  211  A    between atoms: _510  and  _512
REMARK  212  A    between atoms: _512  and  _513
REMARK  213  A    between atoms: _512  and  _515
REMARK  214  A    between atoms: _518  and  _520
REMARK  215  A    between atoms: _520  and  _521
REMARK  216  A    between atoms: _520  and  _523
REMARK  217  A    between atoms: _523  and  _524
REMARK  218  A    between atoms: _529  and  _531
REMARK  219  A    between atoms: _531  and  _532
REMARK  220  A    between atoms: _531  and  _534
REMARK  221  A    between atoms: _534  and  _535
REMARK  222  A    between atoms: _535  and  _536
REMARK  223  A    between atoms: _536  and  _537
REMARK  224  A    between atoms: _537  and  _538
REMARK  225  A    between atoms: _542  and  _544
REMARK  226  A    between atoms: _544  and  _545
REMARK  227  A    between atoms: _544  and  _547
REMARK  228  A    between atoms: _547  and  _548
REMARK  229  A    between atoms: _551  and  _553
REMARK  230  A    between atoms: _553  and  _554
REMARK  231  A    between atoms: _553  and  _556
REMARK  232  A    between atoms: _556  and  _557
REMARK  233  A    between atoms: _560  and  _562
REMARK  234  A    between atoms: _562  and  _563
REMARK  235  A    between atoms: _562  and  _565
REMARK  236  A    between atoms: _565  and  _566
REMARK  237  A    between atoms: _569  and  _571
REMARK  238  A    between atoms: _571  and  _572
REMARK  239  A    between atoms: _571  and  _574
REMARK  240  A    between atoms: _574  and  _575
REMARK  241  A    between atoms: _581  and  _583
REMARK  242  A    between atoms: _583  and  _584
REMARK  243  A    between atoms: _586  and  _588
REMARK  244  A    between atoms: _588  and  _589
REMARK  245  A    between atoms: _588  and  _591
REMARK  246  A    between atoms: _591  and  _592
REMARK  247  A    between atoms: _595  and  _597
REMARK  248  A    between atoms: _597  and  _598
REMARK  249  A    between atoms: _601  and  _603
REMARK  250  A    between atoms: _603  and  _604
REMARK  251  A    between atoms: _603  and  _606
REMARK  252  A    between atoms: _606  and  _607
REMARK  253  A    between atoms: _607  and  _608
REMARK  254  A    between atoms: _608  and  _609
REMARK  255  A    between atoms: _618  and  _620
REMARK  256  A    between atoms: _620  and  _621
REMARK  257  A    between atoms: _620  and  _623
REMARK  258  A    between atoms: _623  and  _624
REMARK  259  A    between atoms: _629  and  _630
REMARK                            x       y       z     vdW  Elec       q    Type
REMARK                         _______ _______ _______ _____ _____    ______ ____
ROOT
ATOM      1  O   HOH     1       3.886  20.534  28.114  0.00  0.00    +0.000 OA
ENDROOT
TORSDOF 0
