REMARK  Name = ../refined-set-2016/2vnp/2vnp_pocket.pdb
REMARK  182 active torsions:
REMARK  status: ('A' for Active; 'I' for Inactive)
REMARK    1  A    between atoms: _1  and  _5
REMARK    2  A    between atoms: _5  and  _6
REMARK    3  A    between atoms: _5  and  _8
REMARK    4  A    between atoms: _8  and  _9
REMARK    5  A    between atoms: _9  and  _10
REMARK    6  A    between atoms: _13  and  _15
REMARK    7  A    between atoms: _15  and  _16
REMARK    8  A    between atoms: _15  and  _18
REMARK    9  A    between atoms: _18  and  _19
REMARK   10  A    between atoms: _24  and  _26
REMARK   11  A    between atoms: _26  and  _27
REMARK   12  A    between atoms: _26  and  _29
REMARK   13  A    between atoms: _32  and  _34
REMARK   14  A    between atoms: _34  and  _35
REMARK   15  A    between atoms: _34  and  _37
REMARK   16  A    between atoms: _37  and  _38
REMARK   17  A    between atoms: _38  and  _39
REMARK   18  A    between atoms: _39  and  _40
REMARK   19  A    between atoms: _40  and  _41
REMARK   20  A    between atoms: _45  and  _47
REMARK   21  A    between atoms: _47  and  _48
REMARK   22  A    between atoms: _47  and  _50
REMARK   23  A    between atoms: _50  and  _51
REMARK   24  A    between atoms: _56  and  _57
REMARK   25  A    between atoms: _59  and  _61
REMARK   26  A    between atoms: _61  and  _62
REMARK   27  A    between atoms: _61  and  _64
REMARK   28  A    between atoms: _64  and  _65
REMARK   29  A    between atoms: _69  and  MN_472
REMARK   30  A    between atoms: _70  and  _72
REMARK   31  A    between atoms: _72  and  _73
REMARK   32  A    between atoms: _72  and  _75
REMARK   33  A    between atoms: _75  and  _76
REMARK   34  A    between atoms: _80  and  MN_472
REMARK   35  A    between atoms: _81  and  _83
REMARK   36  A    between atoms: _83  and  _84
REMARK   37  A    between atoms: _83  and  _86
REMARK   38  A    between atoms: _86  and  _87
REMARK   39  A    between atoms: _90  and  _92
REMARK   40  A    between atoms: _92  and  _93
REMARK   41  A    between atoms: _96  and  _98
REMARK   42  A    between atoms: _98  and  _99
REMARK   43  A    between atoms: _98  and  _101
REMARK   44  A    between atoms: _101  and  _102
REMARK   45  A    between atoms: _108  and  _110
REMARK   46  A    between atoms: _110  and  _111
REMARK   47  A    between atoms: _110  and  _113
REMARK   48  A    between atoms: _113  and  _114
REMARK   49  A    between atoms: _116  and  _118
REMARK   50  A    between atoms: _118  and  _119
REMARK   51  A    between atoms: _118  and  _121
REMARK   52  A    between atoms: _121  and  _122
REMARK   53  A    between atoms: _124  and  _126
REMARK   54  A    between atoms: _126  and  _127
REMARK   55  A    between atoms: _126  and  _129
REMARK   56  A    between atoms: _129  and  _130
REMARK   57  A    between atoms: _130  and  _131
REMARK   58  A    between atoms: _131  and  _132
REMARK   59  A    between atoms: _141  and  _143
REMARK   60  A    between atoms: _143  and  _144
REMARK   61  A    between atoms: _147  and  _149
REMARK   62  A    between atoms: _149  and  _150
REMARK   63  A    between atoms: _149  and  _152
REMARK   64  A    between atoms: _152  and  _153
REMARK   65  A    between atoms: _153  and  _154
REMARK   66  A    between atoms: _154  and  _155
REMARK   67  A    between atoms: _155  and  _156
REMARK   68  A    between atoms: _160  and  _162
REMARK   69  A    between atoms: _162  and  _163
REMARK   70  A    between atoms: _162  and  _165
REMARK   71  A    between atoms: _165  and  _166
REMARK   72  A    between atoms: _166  and  _167
REMARK   73  A    between atoms: _167  and  _168
REMARK   74  A    between atoms: _168  and  _169
REMARK   75  A    between atoms: _173  and  _175
REMARK   76  A    between atoms: _175  and  _176
REMARK   77  A    between atoms: _179  and  _181
REMARK   78  A    between atoms: _181  and  _182
REMARK   79  A    between atoms: _181  and  _184
REMARK   80  A    between atoms: _184  and  _185
REMARK   81  A    between atoms: _195  and  _197
REMARK   82  A    between atoms: _197  and  _198
REMARK   83  A    between atoms: _197  and  _200
REMARK   84  A    between atoms: _200  and  _201
REMARK   85  A    between atoms: _204  and  _206
REMARK   86  A    between atoms: _206  and  _207
REMARK   87  A    between atoms: _206  and  _209
REMARK   88  A    between atoms: _209  and  _210
REMARK   89  A    between atoms: _215  and  _217
REMARK   90  A    between atoms: _217  and  _218
REMARK   91  A    between atoms: _217  and  _220
REMARK   92  A    between atoms: _220  and  _221
REMARK   93  A    between atoms: _223  and  _225
REMARK   94  A    between atoms: _225  and  _226
REMARK   95  A    between atoms: _225  and  _228
REMARK   96  A    between atoms: _231  and  _233
REMARK   97  A    between atoms: _233  and  _234
REMARK   98  A    between atoms: _233  and  _236
REMARK   99  A    between atoms: _234  and  _235
REMARK  100  A    between atoms: _234  and  _238
REMARK  101  A    between atoms: _235  and  MG_473
REMARK  102  A    between atoms: _238  and  _240
REMARK  103  A    between atoms: _240  and  _241
REMARK  104  A    between atoms: _243  and  _245
REMARK  105  A    between atoms: _245  and  _246
REMARK  106  A    between atoms: _245  and  _248
REMARK  107  A    between atoms: _248  and  _249
REMARK  108  A    between atoms: _253  and  MN_472
REMARK  109  A    between atoms: _255  and  _256
REMARK  110  A    between atoms: _261  and  _263
REMARK  111  A    between atoms: _263  and  _264
REMARK  112  A    between atoms: _263  and  _266
REMARK  113  A    between atoms: _266  and  _267
REMARK  114  A    between atoms: _267  and  _268
REMARK  115  A    between atoms: _273  and  _275
REMARK  116  A    between atoms: _275  and  _276
REMARK  117  A    between atoms: _275  and  _278
REMARK  118  A    between atoms: _278  and  _279
REMARK  119  A    between atoms: _279  and  _280
REMARK  120  A    between atoms: _280  and  _281
REMARK  121  A    between atoms: _290  and  _292
REMARK  122  A    between atoms: _292  and  _293
REMARK  123  A    between atoms: _292  and  _295
REMARK  124  A    between atoms: _295  and  _296
REMARK  125  A    between atoms: _296  and  _297
REMARK  126  A    between atoms: _297  and  _298
REMARK  127  A    between atoms: _307  and  _309
REMARK  128  A    between atoms: _309  and  _310
REMARK  129  A    between atoms: _309  and  _312
REMARK  130  A    between atoms: _312  and  _313
REMARK  131  A    between atoms: _318  and  _319
REMARK  132  A    between atoms: _321  and  _323
REMARK  133  A    between atoms: _323  and  _324
REMARK  134  A    between atoms: _323  and  _326
REMARK  135  A    between atoms: _326  and  _327
REMARK  136  A    between atoms: _327  and  _328
REMARK  137  A    between atoms: _328  and  _330
REMARK  138  A    between atoms: _330  and  MG_473
REMARK  139  A    between atoms: _331  and  _333
REMARK  140  A    between atoms: _333  and  _334
REMARK  141  A    between atoms: _333  and  _336
REMARK  142  A    between atoms: _336  and  _337
REMARK  143  A    between atoms: _343  and  _345
REMARK  144  A    between atoms: _345  and  _346
REMARK  145  A    between atoms: _345  and  _348
REMARK  146  A    between atoms: _348  and  _349
REMARK  147  A    between atoms: _354  and  _355
REMARK  148  A    between atoms: _357  and  _359
REMARK  149  A    between atoms: _369  and  _372
REMARK  150  A    between atoms: _372  and  _373
REMARK  151  A    between atoms: _380  and  _381
REMARK  152  A    between atoms: _388  and  _390
REMARK  153  A    between atoms: _390  and  _391
REMARK  154  A    between atoms: _390  and  _393
REMARK  155  A    between atoms: _396  and  _398
REMARK  156  A    between atoms: _398  and  _399
REMARK  157  A    between atoms: _398  and  _401
REMARK  158  A    between atoms: _404  and  _405
REMARK  159  A    between atoms: _410  and  _412
REMARK  160  A    between atoms: _412  and  _413
REMARK  161  A    between atoms: _412  and  _415
REMARK  162  A    between atoms: _415  and  _416
REMARK  163  A    between atoms: _416  and  _417
REMARK  164  A    between atoms: _420  and  _422
REMARK  165  A    between atoms: _422  and  _423
REMARK  166  A    between atoms: _422  and  _425
REMARK  167  A    between atoms: _425  and  _426
REMARK  168  A    between atoms: _429  and  _430
REMARK  169  A    between atoms: _435  and  _437
REMARK  170  A    between atoms: _437  and  _438
REMARK  171  A    between atoms: _437  and  _440
REMARK  172  A    between atoms: _440  and  _441
REMARK  173  A    between atoms: _451  and  _453
REMARK  174  A    between atoms: _453  and  _454
REMARK  175  A    between atoms: _453  and  _456
REMARK  176  A    between atoms: _456  and  _457
REMARK  177  A    between atoms: _457  and  _458
REMARK  178  A    between atoms: _460  and  _462
REMARK  179  A    between atoms: _462  and  _463
REMARK  180  A    between atoms: _462  and  _465
REMARK  181  A    between atoms: _465  and  _466
REMARK  182  A    between atoms: _466  and  _467
REMARK                            x       y       z     vdW  Elec       q    Type
REMARK                         _______ _______ _______ _____ _____    ______ ____
ROOT
ATOM      1  CA  HIS A   2       5.818   1.180  25.441  0.00  0.00    +0.155 C 
ENDROOT
BRANCH   1   3
ATOM      2  C   GLU A   1       5.633   3.145  24.045  0.00  0.00    +0.202 C 
ATOM      3  N   HIS A   2       5.267   2.496  25.136  0.00  0.00    -0.300 N 
ATOM      4  H   HIS A   2       4.578   2.928  25.785  0.00  0.00    +0.150 HD
ATOM      5  O   GLU A   1       6.465   2.708  23.253  0.00  0.00    -0.277 OA
BRANCH   2   6
ATOM      6  CA  GLU A   1       4.899   4.456  23.808  0.00  0.00    +0.013 C 
BRANCH   6   7
ATOM      7  N   GLU A   1       5.674   5.560  23.175  0.00  0.00    +0.387 N 
ATOM      8  H1  GLU A   1       6.488   5.799  23.776  0.00  0.00    -0.089 HD
ATOM      9  H2  GLU A   1       5.063   6.395  23.069  0.00  0.00    -0.089 HD
ATOM     10  H3  GLU A   1       6.010   5.254  22.240  0.00  0.00    -0.089 HD
ENDBRANCH   6   7
BRANCH   6  11
ATOM     11  CB  GLU A   1       3.618   4.187  23.031  0.00  0.00    -0.001 C 
BRANCH  11  12
ATOM     12  CG  GLU A   1       2.494   5.097  23.478  0.00  0.00    +0.112 C 
BRANCH  12  13
ATOM     13  CD  GLU A   1       1.144   4.803  22.846  0.00  0.00    +0.365 C 
ATOM     14  OE2 GLU A   1       0.653   3.613  22.818  0.00  0.00    -0.246 OA
ATOM     15  OE1 GLU A   1       0.544   5.834  22.438  0.00  0.00    -0.246 OA
ENDBRANCH  12  13
ENDBRANCH  11  12
ENDBRANCH   6  11
ENDBRANCH   2   6
ENDBRANCH   1   3
BRANCH   1  16
ATOM     16  C   HIS A   2       4.720   0.169  25.809  0.00  0.00    +0.241 C 
ATOM     17  N   VAL A   3       5.137  -1.061  26.047  0.00  0.00    -0.298 N 
ATOM     18  H   VAL A   3       6.111  -1.324  25.796  0.00  0.00    +0.150 HD
ATOM     19  O   HIS A   2       3.523   0.495  25.872  0.00  0.00    -0.273 OA
BRANCH  17  20
ATOM     20  CA  VAL A   3       4.282  -2.038  26.640  0.00  0.00    +0.137 C 
BRANCH  20  21
ATOM     21  CB  VAL A   3       3.957  -3.274  25.705  0.00  0.00    +0.026 C 
ATOM     22  CG2 VAL A   3       5.185  -4.104  25.347  0.00  0.00    +0.002 C 
ATOM     23  CG1 VAL A   3       3.197  -2.829  24.464  0.00  0.00    +0.002 C 
ENDBRANCH  20  21
BRANCH  20  24
ATOM     24  C   VAL A   3       4.960  -2.494  27.918  0.00  0.00    +0.227 C 
ATOM     25  O   VAL A   3       6.171  -2.503  28.015  0.00  0.00    -0.286 OA
ENDBRANCH  20  24
ENDBRANCH  17  20
ENDBRANCH   1  16
BRANCH   1  26
ATOM     26  CB  HIS A   2       6.868   1.303  26.587  0.00  0.00    +0.076 C 
BRANCH  26  27
ATOM     27  CG  HIS A   2       6.364   2.086  27.745  0.00  0.00    +0.082 A 
ATOM     28  CD2 HIS A   2       5.612   1.721  28.813  0.00  0.00    +0.115 A 
ATOM     29  NE2 HIS A   2       5.349   2.870  29.534  0.00  0.00    -0.221 NA
ATOM     30  CE1 HIS A   2       5.900   3.904  28.915  0.00  0.00    +0.199 A 
ATOM     31  ND1 HIS A   2       6.511   3.456  27.828  0.00  0.00    -0.227 NA
ENDBRANCH  26  27
ENDBRANCH   1  26
TORSDOF 12
REMARK  Name = ../refined-set-2016/2vnp/2vnp_pocket.pdb
REMARK  182 active torsions:
REMARK  status: ('A' for Active; 'I' for Inactive)
REMARK    1  A    between atoms: _1  and  _5
REMARK    2  A    between atoms: _5  and  _6
REMARK    3  A    between atoms: _5  and  _8
REMARK    4  A    between atoms: _8  and  _9
REMARK    5  A    between atoms: _9  and  _10
REMARK    6  A    between atoms: _13  and  _15
REMARK    7  A    between atoms: _15  and  _16
REMARK    8  A    between atoms: _15  and  _18
REMARK    9  A    between atoms: _18  and  _19
REMARK   10  A    between atoms: _24  and  _26
REMARK   11  A    between atoms: _26  and  _27
REMARK   12  A    between atoms: _26  and  _29
REMARK   13  A    between atoms: _32  and  _34
REMARK   14  A    between atoms: _34  and  _35
REMARK   15  A    between atoms: _34  and  _37
REMARK   16  A    between atoms: _37  and  _38
REMARK   17  A    between atoms: _38  and  _39
REMARK   18  A    between atoms: _39  and  _40
REMARK   19  A    between atoms: _40  and  _41
REMARK   20  A    between atoms: _45  and  _47
REMARK   21  A    between atoms: _47  and  _48
REMARK   22  A    between atoms: _47  and  _50
REMARK   23  A    between atoms: _50  and  _51
REMARK   24  A    between atoms: _56  and  _57
REMARK   25  A    between atoms: _59  and  _61
REMARK   26  A    between atoms: _61  and  _62
REMARK   27  A    between atoms: _61  and  _64
REMARK   28  A    between atoms: _64  and  _65
REMARK   29  A    between atoms: _69  and  MN_472
REMARK   30  A    between atoms: _70  and  _72
REMARK   31  A    between atoms: _72  and  _73
REMARK   32  A    between atoms: _72  and  _75
REMARK   33  A    between atoms: _75  and  _76
REMARK   34  A    between atoms: _80  and  MN_472
REMARK   35  A    between atoms: _81  and  _83
REMARK   36  A    between atoms: _83  and  _84
REMARK   37  A    between atoms: _83  and  _86
REMARK   38  A    between atoms: _86  and  _87
REMARK   39  A    between atoms: _90  and  _92
REMARK   40  A    between atoms: _92  and  _93
REMARK   41  A    between atoms: _96  and  _98
REMARK   42  A    between atoms: _98  and  _99
REMARK   43  A    between atoms: _98  and  _101
REMARK   44  A    between atoms: _101  and  _102
REMARK   45  A    between atoms: _108  and  _110
REMARK   46  A    between atoms: _110  and  _111
REMARK   47  A    between atoms: _110  and  _113
REMARK   48  A    between atoms: _113  and  _114
REMARK   49  A    between atoms: _116  and  _118
REMARK   50  A    between atoms: _118  and  _119
REMARK   51  A    between atoms: _118  and  _121
REMARK   52  A    between atoms: _121  and  _122
REMARK   53  A    between atoms: _124  and  _126
REMARK   54  A    between atoms: _126  and  _127
REMARK   55  A    between atoms: _126  and  _129
REMARK   56  A    between atoms: _129  and  _130
REMARK   57  A    between atoms: _130  and  _131
REMARK   58  A    between atoms: _131  and  _132
REMARK   59  A    between atoms: _141  and  _143
REMARK   60  A    between atoms: _143  and  _144
REMARK   61  A    between atoms: _147  and  _149
REMARK   62  A    between atoms: _149  and  _150
REMARK   63  A    between atoms: _149  and  _152
REMARK   64  A    between atoms: _152  and  _153
REMARK   65  A    between atoms: _153  and  _154
REMARK   66  A    between atoms: _154  and  _155
REMARK   67  A    between atoms: _155  and  _156
REMARK   68  A    between atoms: _160  and  _162
REMARK   69  A    between atoms: _162  and  _163
REMARK   70  A    between atoms: _162  and  _165
REMARK   71  A    between atoms: _165  and  _166
REMARK   72  A    between atoms: _166  and  _167
REMARK   73  A    between atoms: _167  and  _168
REMARK   74  A    between atoms: _168  and  _169
REMARK   75  A    between atoms: _173  and  _175
REMARK   76  A    between atoms: _175  and  _176
REMARK   77  A    between atoms: _179  and  _181
REMARK   78  A    between atoms: _181  and  _182
REMARK   79  A    between atoms: _181  and  _184
REMARK   80  A    between atoms: _184  and  _185
REMARK   81  A    between atoms: _195  and  _197
REMARK   82  A    between atoms: _197  and  _198
REMARK   83  A    between atoms: _197  and  _200
REMARK   84  A    between atoms: _200  and  _201
REMARK   85  A    between atoms: _204  and  _206
REMARK   86  A    between atoms: _206  and  _207
REMARK   87  A    between atoms: _206  and  _209
REMARK   88  A    between atoms: _209  and  _210
REMARK   89  A    between atoms: _215  and  _217
REMARK   90  A    between atoms: _217  and  _218
REMARK   91  A    between atoms: _217  and  _220
REMARK   92  A    between atoms: _220  and  _221
REMARK   93  A    between atoms: _223  and  _225
REMARK   94  A    between atoms: _225  and  _226
REMARK   95  A    between atoms: _225  and  _228
REMARK   96  A    between atoms: _231  and  _233
REMARK   97  A    between atoms: _233  and  _234
REMARK   98  A    between atoms: _233  and  _236
REMARK   99  A    between atoms: _234  and  _235
REMARK  100  A    between atoms: _234  and  _238
REMARK  101  A    between atoms: _235  and  MG_473
REMARK  102  A    between atoms: _238  and  _240
REMARK  103  A    between atoms: _240  and  _241
REMARK  104  A    between atoms: _243  and  _245
REMARK  105  A    between atoms: _245  and  _246
REMARK  106  A    between atoms: _245  and  _248
REMARK  107  A    between atoms: _248  and  _249
REMARK  108  A    between atoms: _253  and  MN_472
REMARK  109  A    between atoms: _255  and  _256
REMARK  110  A    between atoms: _261  and  _263
REMARK  111  A    between atoms: _263  and  _264
REMARK  112  A    between atoms: _263  and  _266
REMARK  113  A    between atoms: _266  and  _267
REMARK  114  A    between atoms: _267  and  _268
REMARK  115  A    between atoms: _273  and  _275
REMARK  116  A    between atoms: _275  and  _276
REMARK  117  A    between atoms: _275  and  _278
REMARK  118  A    between atoms: _278  and  _279
REMARK  119  A    between atoms: _279  and  _280
REMARK  120  A    between atoms: _280  and  _281
REMARK  121  A    between atoms: _290  and  _292
REMARK  122  A    between atoms: _292  and  _293
REMARK  123  A    between atoms: _292  and  _295
REMARK  124  A    between atoms: _295  and  _296
REMARK  125  A    between atoms: _296  and  _297
REMARK  126  A    between atoms: _297  and  _298
REMARK  127  A    between atoms: _307  and  _309
REMARK  128  A    between atoms: _309  and  _310
REMARK  129  A    between atoms: _309  and  _312
REMARK  130  A    between atoms: _312  and  _313
REMARK  131  A    between atoms: _318  and  _319
REMARK  132  A    between atoms: _321  and  _323
REMARK  133  A    between atoms: _323  and  _324
REMARK  134  A    between atoms: _323  and  _326
REMARK  135  A    between atoms: _326  and  _327
REMARK  136  A    between atoms: _327  and  _328
REMARK  137  A    between atoms: _328  and  _330
REMARK  138  A    between atoms: _330  and  MG_473
REMARK  139  A    between atoms: _331  and  _333
REMARK  140  A    between atoms: _333  and  _334
REMARK  141  A    between atoms: _333  and  _336
REMARK  142  A    between atoms: _336  and  _337
REMARK  143  A    between atoms: _343  and  _345
REMARK  144  A    between atoms: _345  and  _346
REMARK  145  A    between atoms: _345  and  _348
REMARK  146  A    between atoms: _348  and  _349
REMARK  147  A    between atoms: _354  and  _355
REMARK  148  A    between atoms: _357  and  _359
REMARK  149  A    between atoms: _369  and  _372
REMARK  150  A    between atoms: _372  and  _373
REMARK  151  A    between atoms: _380  and  _381
REMARK  152  A    between atoms: _388  and  _390
REMARK  153  A    between atoms: _390  and  _391
REMARK  154  A    between atoms: _390  and  _393
REMARK  155  A    between atoms: _396  and  _398
REMARK  156  A    between atoms: _398  and  _399
REMARK  157  A    between atoms: _398  and  _401
REMARK  158  A    between atoms: _404  and  _405
REMARK  159  A    between atoms: _410  and  _412
REMARK  160  A    between atoms: _412  and  _413
REMARK  161  A    between atoms: _412  and  _415
REMARK  162  A    between atoms: _415  and  _416
REMARK  163  A    between atoms: _416  and  _417
REMARK  164  A    between atoms: _420  and  _422
REMARK  165  A    between atoms: _422  and  _423
REMARK  166  A    between atoms: _422  and  _425
REMARK  167  A    between atoms: _425  and  _426
REMARK  168  A    between atoms: _429  and  _430
REMARK  169  A    between atoms: _435  and  _437
REMARK  170  A    between atoms: _437  and  _438
REMARK  171  A    between atoms: _437  and  _440
REMARK  172  A    between atoms: _440  and  _441
REMARK  173  A    between atoms: _451  and  _453
REMARK  174  A    between atoms: _453  and  _454
REMARK  175  A    between atoms: _453  and  _456
REMARK  176  A    between atoms: _456  and  _457
REMARK  177  A    between atoms: _457  and  _458
REMARK  178  A    between atoms: _460  and  _462
REMARK  179  A    between atoms: _462  and  _463
REMARK  180  A    between atoms: _462  and  _465
REMARK  181  A    between atoms: _465  and  _466
REMARK  182  A    between atoms: _466  and  _467
REMARK                            x       y       z     vdW  Elec       q    Type
REMARK                         _______ _______ _______ _____ _____    ______ ____
ROOT
ATOM      1  C   LYS A   1       5.531  -1.268  20.290  0.00  0.00    +0.238 C 
ATOM      2  O   LYS A   1       5.254  -2.458  20.145  0.00  0.00    -0.274 OA
ATOM      3  N   TYR A   2       5.903  -0.491  19.266  0.00  0.00    -0.298 N 
ATOM      4  H   TYR A   2       6.091   0.515  19.451  0.00  0.00    +0.150 HD
ENDROOT
BRANCH   1   5
ATOM      5  CA  LYS A   1       5.447  -0.613  21.681  0.00  0.00    +0.145 C 
BRANCH   5   6
ATOM      6  N   LYS A   1       6.692   0.038  22.213  0.00  0.00    -0.238 NA
ATOM      7  H   LYS A   1       6.624   1.005  22.589  0.00  0.00    +0.142 HD
ENDBRANCH   5   6
BRANCH   5   8
ATOM      8  CB  LYS A   1       4.256   0.368  21.767  0.00  0.00    +0.026 C 
BRANCH   8   9
ATOM      9  CG  LYS A   1       2.884  -0.311  21.587  0.00  0.00    -0.000 C 
BRANCH   9  10
ATOM     10  CD  LYS A   1       1.732   0.722  21.725  0.00  0.00    -0.024 C 
BRANCH  10  11
ATOM     11  CE  LYS A   1       1.522   1.465  20.388  0.00  0.00    -0.086 C 
BRANCH  11  12
ATOM     12  NZ  LYS A   1       0.440   2.447  20.529  0.00  0.00    +0.380 N 
ATOM     13  HZ1 LYS A   1       0.691   3.134  21.269  0.00  0.00    -0.089 HD
ATOM     14  HZ2 LYS A   1      -0.439   1.957  20.792  0.00  0.00    -0.089 HD
ATOM     15  HZ3 LYS A   1       0.304   2.943  19.625  0.00  0.00    -0.089 HD
ENDBRANCH  11  12
ENDBRANCH  10  11
ENDBRANCH   9  10
ENDBRANCH   8   9
ENDBRANCH   5   8
ENDBRANCH   1   5
BRANCH   3  16
ATOM     16  CA  TYR A   2       6.059  -0.991  17.894  0.00  0.00    +0.141 C 
BRANCH  16  17
ATOM     17  C   TYR A   2       7.083  -2.148  17.819  0.00  0.00    +0.227 C 
ATOM     18  O   TYR A   2       6.814  -3.195  17.215  0.00  0.00    -0.286 OA
ENDBRANCH  16  17
BRANCH  16  19
ATOM     19  CB  TYR A   2       6.462   0.171  16.958  0.00  0.00    +0.054 C 
BRANCH  19  20
ATOM     20  CG  TYR A   2       6.311  -0.196  15.505  0.00  0.00    -0.020 A 
ATOM     21  CD2 TYR A   2       7.332  -0.926  14.813  0.00  0.00    -0.001 A 
ATOM     22  CE2 TYR A   2       7.169  -1.303  13.454  0.00  0.00    +0.036 A 
ATOM     23  CZ  TYR A   2       5.958  -0.955  12.816  0.00  0.00    +0.134 A 
ATOM     24  CE1 TYR A   2       4.965  -0.241  13.478  0.00  0.00    +0.036 A 
ATOM     25  CD1 TYR A   2       5.128   0.114  14.812  0.00  0.00    -0.001 A 
BRANCH  23  26
ATOM     26  OH  TYR A   2       5.729  -1.302  11.494  0.00  0.00    -0.506 OA
ATOM     27  HH  TYR A   2       4.835  -0.978  11.219  0.00  0.00    +0.292 HD
ENDBRANCH  23  26
ENDBRANCH  19  20
ENDBRANCH  16  19
ENDBRANCH   3  16
TORSDOF 12
REMARK  Name = ../refined-set-2016/2vnp/2vnp_pocket.pdb
REMARK  182 active torsions:
REMARK  status: ('A' for Active; 'I' for Inactive)
REMARK    1  A    between atoms: _1  and  _5
REMARK    2  A    between atoms: _5  and  _6
REMARK    3  A    between atoms: _5  and  _8
REMARK    4  A    between atoms: _8  and  _9
REMARK    5  A    between atoms: _9  and  _10
REMARK    6  A    between atoms: _13  and  _15
REMARK    7  A    between atoms: _15  and  _16
REMARK    8  A    between atoms: _15  and  _18
REMARK    9  A    between atoms: _18  and  _19
REMARK   10  A    between atoms: _24  and  _26
REMARK   11  A    between atoms: _26  and  _27
REMARK   12  A    between atoms: _26  and  _29
REMARK   13  A    between atoms: _32  and  _34
REMARK   14  A    between atoms: _34  and  _35
REMARK   15  A    between atoms: _34  and  _37
REMARK   16  A    between atoms: _37  and  _38
REMARK   17  A    between atoms: _38  and  _39
REMARK   18  A    between atoms: _39  and  _40
REMARK   19  A    between atoms: _40  and  _41
REMARK   20  A    between atoms: _45  and  _47
REMARK   21  A    between atoms: _47  and  _48
REMARK   22  A    between atoms: _47  and  _50
REMARK   23  A    between atoms: _50  and  _51
REMARK   24  A    between atoms: _56  and  _57
REMARK   25  A    between atoms: _59  and  _61
REMARK   26  A    between atoms: _61  and  _62
REMARK   27  A    between atoms: _61  and  _64
REMARK   28  A    between atoms: _64  and  _65
REMARK   29  A    between atoms: _69  and  MN_472
REMARK   30  A    between atoms: _70  and  _72
REMARK   31  A    between atoms: _72  and  _73
REMARK   32  A    between atoms: _72  and  _75
REMARK   33  A    between atoms: _75  and  _76
REMARK   34  A    between atoms: _80  and  MN_472
REMARK   35  A    between atoms: _81  and  _83
REMARK   36  A    between atoms: _83  and  _84
REMARK   37  A    between atoms: _83  and  _86
REMARK   38  A    between atoms: _86  and  _87
REMARK   39  A    between atoms: _90  and  _92
REMARK   40  A    between atoms: _92  and  _93
REMARK   41  A    between atoms: _96  and  _98
REMARK   42  A    between atoms: _98  and  _99
REMARK   43  A    between atoms: _98  and  _101
REMARK   44  A    between atoms: _101  and  _102
REMARK   45  A    between atoms: _108  and  _110
REMARK   46  A    between atoms: _110  and  _111
REMARK   47  A    between atoms: _110  and  _113
REMARK   48  A    between atoms: _113  and  _114
REMARK   49  A    between atoms: _116  and  _118
REMARK   50  A    between atoms: _118  and  _119
REMARK   51  A    between atoms: _118  and  _121
REMARK   52  A    between atoms: _121  and  _122
REMARK   53  A    between atoms: _124  and  _126
REMARK   54  A    between atoms: _126  and  _127
REMARK   55  A    between atoms: _126  and  _129
REMARK   56  A    between atoms: _129  and  _130
REMARK   57  A    between atoms: _130  and  _131
REMARK   58  A    between atoms: _131  and  _132
REMARK   59  A    between atoms: _141  and  _143
REMARK   60  A    between atoms: _143  and  _144
REMARK   61  A    between atoms: _147  and  _149
REMARK   62  A    between atoms: _149  and  _150
REMARK   63  A    between atoms: _149  and  _152
REMARK   64  A    between atoms: _152  and  _153
REMARK   65  A    between atoms: _153  and  _154
REMARK   66  A    between atoms: _154  and  _155
REMARK   67  A    between atoms: _155  and  _156
REMARK   68  A    between atoms: _160  and  _162
REMARK   69  A    between atoms: _162  and  _163
REMARK   70  A    between atoms: _162  and  _165
REMARK   71  A    between atoms: _165  and  _166
REMARK   72  A    between atoms: _166  and  _167
REMARK   73  A    between atoms: _167  and  _168
REMARK   74  A    between atoms: _168  and  _169
REMARK   75  A    between atoms: _173  and  _175
REMARK   76  A    between atoms: _175  and  _176
REMARK   77  A    between atoms: _179  and  _181
REMARK   78  A    between atoms: _181  and  _182
REMARK   79  A    between atoms: _181  and  _184
REMARK   80  A    between atoms: _184  and  _185
REMARK   81  A    between atoms: _195  and  _197
REMARK   82  A    between atoms: _197  and  _198
REMARK   83  A    between atoms: _197  and  _200
REMARK   84  A    between atoms: _200  and  _201
REMARK   85  A    between atoms: _204  and  _206
REMARK   86  A    between atoms: _206  and  _207
REMARK   87  A    between atoms: _206  and  _209
REMARK   88  A    between atoms: _209  and  _210
REMARK   89  A    between atoms: _215  and  _217
REMARK   90  A    between atoms: _217  and  _218
REMARK   91  A    between atoms: _217  and  _220
REMARK   92  A    between atoms: _220  and  _221
REMARK   93  A    between atoms: _223  and  _225
REMARK   94  A    between atoms: _225  and  _226
REMARK   95  A    between atoms: _225  and  _228
REMARK   96  A    between atoms: _231  and  _233
REMARK   97  A    between atoms: _233  and  _234
REMARK   98  A    between atoms: _233  and  _236
REMARK   99  A    between atoms: _234  and  _235
REMARK  100  A    between atoms: _234  and  _238
REMARK  101  A    between atoms: _235  and  MG_473
REMARK  102  A    between atoms: _238  and  _240
REMARK  103  A    between atoms: _240  and  _241
REMARK  104  A    between atoms: _243  and  _245
REMARK  105  A    between atoms: _245  and  _246
REMARK  106  A    between atoms: _245  and  _248
REMARK  107  A    between atoms: _248  and  _249
REMARK  108  A    between atoms: _253  and  MN_472
REMARK  109  A    between atoms: _255  and  _256
REMARK  110  A    between atoms: _261  and  _263
REMARK  111  A    between atoms: _263  and  _264
REMARK  112  A    between atoms: _263  and  _266
REMARK  113  A    between atoms: _266  and  _267
REMARK  114  A    between atoms: _267  and  _268
REMARK  115  A    between atoms: _273  and  _275
REMARK  116  A    between atoms: _275  and  _276
REMARK  117  A    between atoms: _275  and  _278
REMARK  118  A    between atoms: _278  and  _279
REMARK  119  A    between atoms: _279  and  _280
REMARK  120  A    between atoms: _280  and  _281
REMARK  121  A    between atoms: _290  and  _292
REMARK  122  A    between atoms: _292  and  _293
REMARK  123  A    between atoms: _292  and  _295
REMARK  124  A    between atoms: _295  and  _296
REMARK  125  A    between atoms: _296  and  _297
REMARK  126  A    between atoms: _297  and  _298
REMARK  127  A    between atoms: _307  and  _309
REMARK  128  A    between atoms: _309  and  _310
REMARK  129  A    between atoms: _309  and  _312
REMARK  130  A    between atoms: _312  and  _313
REMARK  131  A    between atoms: _318  and  _319
REMARK  132  A    between atoms: _321  and  _323
REMARK  133  A    between atoms: _323  and  _324
REMARK  134  A    between atoms: _323  and  _326
REMARK  135  A    between atoms: _326  and  _327
REMARK  136  A    between atoms: _327  and  _328
REMARK  137  A    between atoms: _328  and  _330
REMARK  138  A    between atoms: _330  and  MG_473
REMARK  139  A    between atoms: _331  and  _333
REMARK  140  A    between atoms: _333  and  _334
REMARK  141  A    between atoms: _333  and  _336
REMARK  142  A    between atoms: _336  and  _337
REMARK  143  A    between atoms: _343  and  _345
REMARK  144  A    between atoms: _345  and  _346
REMARK  145  A    between atoms: _345  and  _348
REMARK  146  A    between atoms: _348  and  _349
REMARK  147  A    between atoms: _354  and  _355
REMARK  148  A    between atoms: _357  and  _359
REMARK  149  A    between atoms: _369  and  _372
REMARK  150  A    between atoms: _372  and  _373
REMARK  151  A    between atoms: _380  and  _381
REMARK  152  A    between atoms: _388  and  _390
REMARK  153  A    between atoms: _390  and  _391
REMARK  154  A    between atoms: _390  and  _393
REMARK  155  A    between atoms: _396  and  _398
REMARK  156  A    between atoms: _398  and  _399
REMARK  157  A    between atoms: _398  and  _401
REMARK  158  A    between atoms: _404  and  _405
REMARK  159  A    between atoms: _410  and  _412
REMARK  160  A    between atoms: _412  and  _413
REMARK  161  A    between atoms: _412  and  _415
REMARK  162  A    between atoms: _415  and  _416
REMARK  163  A    between atoms: _416  and  _417
REMARK  164  A    between atoms: _420  and  _422
REMARK  165  A    between atoms: _422  and  _423
REMARK  166  A    between atoms: _422  and  _425
REMARK  167  A    between atoms: _425  and  _426
REMARK  168  A    between atoms: _429  and  _430
REMARK  169  A    between atoms: _435  and  _437
REMARK  170  A    between atoms: _437  and  _438
REMARK  171  A    between atoms: _437  and  _440
REMARK  172  A    between atoms: _440  and  _441
REMARK  173  A    between atoms: _451  and  _453
REMARK  174  A    between atoms: _453  and  _454
REMARK  175  A    between atoms: _453  and  _456
REMARK  176  A    between atoms: _456  and  _457
REMARK  177  A    between atoms: _457  and  _458
REMARK  178  A    between atoms: _460  and  _462
REMARK  179  A    between atoms: _462  and  _463
REMARK  180  A    between atoms: _462  and  _465
REMARK  181  A    between atoms: _465  and  _466
REMARK  182  A    between atoms: _466  and  _467
REMARK                            x       y       z     vdW  Elec       q    Type
REMARK                         _______ _______ _______ _____ _____    ______ ____
ROOT
ATOM      1 MN   UNK A   1       0.139  -6.007  22.261  0.00  0.00    +0.000 Mn
ATOM      2  O   UNK A   1      -1.500  -6.534  23.167  0.00  0.00    +0.000 OA
ATOM      3  C   UNK A   1      -2.110  -7.549  23.567  0.00  0.00    +0.000 C 
ATOM      4  C   UNK A   1      -1.235  -8.542  24.271  0.00  0.00    +0.000 C 
ATOM      5  C   UNK A   1      -1.984  -9.286  25.335  0.00  0.00    +0.000 C 
ATOM      6  C   UNK A   1      -1.159 -10.388  26.018  0.00  0.00    +0.000 C 
ATOM      7  N   UNK A   1      -0.705 -11.411  25.071  0.00  0.00    +0.000 N 
ATOM      8  H   UNK A   3      -1.324 -12.201  24.797  0.00  0.00    +0.000 HD
ATOM      9  C   UNK A   2       0.520 -11.297  24.574  0.00  0.00    +0.000 C 
ATOM     10  O   UNK A   2       1.307 -10.469  24.977  0.00  0.00    +0.000 OA
ATOM     11  C   UNK A   2       0.857 -12.153  23.375  0.00  0.00    +0.000 C 
ATOM     12  N   UNK A   2       0.620 -11.265  22.226  0.00  0.00    +0.000 N 
ATOM     13  H   UNK A   2       0.902 -10.267  22.303  0.00  0.00    +0.000 HD
ATOM     14  C   UNK A   1       0.060 -11.682  21.090  0.00  0.00    +0.000 C 
ATOM     15  O   UNK A   1      -0.296 -12.855  20.889  0.00  0.00    +0.000 OA
ATOM     16  C   UNK A   1       0.023 -10.628  19.992  0.00  0.00    +0.000 C 
ATOM     17  C   UNK A   1      -1.299  -9.920  19.883  0.00  0.00    +0.000 C 
ATOM     18  C   UNK A   1      -1.196  -8.457  19.356  0.00  0.00    +0.000 C 
ATOM     19  C   UNK A   1      -0.797  -7.468  20.461  0.00  0.00    +0.000 C 
ATOM     20  O   UNK A   1      -3.365  -7.780  23.437  0.00  0.00    +0.000 OA
ATOM     21  O   UNK A   1      -0.084  -7.828  21.414  0.00  0.00    +0.000 OA
ATOM     22  O   UNK A   1      -1.207  -6.306  20.430  0.00  0.00    +0.000 OA
ENDROOT
BRANCH   1  23
ATOM     23  N   UNK A   1      -0.196  -4.083  22.832  0.00  0.00    +0.000 N 
ATOM     24  C   UNK A   1      -0.162  -3.520  24.084  0.00  0.00    +0.000 A 
ATOM     25  C   UNK A   1      -0.337  -2.181  23.932  0.00  0.00    +0.000 A 
ATOM     26  N   UNK A   1      -0.510  -1.967  22.571  0.00  0.00    +0.000 NA
ATOM     27  C   UNK A   1      -0.461  -3.132  21.939  0.00  0.00    +0.000 A 
BRANCH  25  28
ATOM     28  C   UNK A   1      -0.346  -1.062  24.946  0.00  0.00    +0.000 C 
BRANCH  28  29
ATOM     29  C   UNK A   1      -1.622  -0.992  25.843  0.00  0.00    +0.000 C 
BRANCH  29  30
ATOM     30  C   UNK A   1      -1.444   0.058  26.955  0.00  0.00    +0.000 C 
ATOM     31  N   UNK A   2      -1.689  -0.298  28.235  0.00  0.00    +0.000 N 
ATOM     32  C   UNK A   2      -1.471   0.701  29.296  0.00  0.00    +0.000 C 
ATOM     33  C   UNK A   2      -1.990  -0.019  30.582  0.00  0.00    +0.000 C 
ATOM     34  C   UNK A   2      -2.849  -1.127  30.071  0.00  0.00    +0.000 C 
ATOM     35  C   UNK A   2      -2.185  -1.562  28.794  0.00  0.00    +0.000 C 
ATOM     36  O   UNK A   1      -1.127   1.213  26.646  0.00  0.00    +0.000 OA
BRANCH  32  37
ATOM     37  C   UNK A   2       0.014   1.004  29.463  0.00  0.00    +0.000 C 
ATOM     38  N   UNK A   3       0.320   2.253  29.834  0.00  0.00    +0.000 N 
ATOM     39  H   UNK A   3      -0.455   2.921  30.018  0.00  0.00    +0.000 HD
ATOM     40  O   UNK A   2       0.876   0.091  29.232  0.00  0.00    +0.000 OA
BRANCH  38  41
ATOM     41  C   UNK A   3       1.739   2.732  29.996  0.00  0.00    +0.000 C 
BRANCH  41  42
ATOM     42  C   UNK A   3       2.184   2.690  31.478  0.00  0.00    +0.000 C 
ATOM     43  O   UNK A   3       1.349   2.526  32.339  0.00  0.00    +0.000 OA
ENDBRANCH  41  42
BRANCH  41  44
ATOM     44  C   UNK A   3       1.842   4.190  29.495  0.00  0.00    +0.000 C 
BRANCH  44  45
ATOM     45  C   UNK A   3       1.471   4.354  27.983  0.00  0.00    +0.000 C 
BRANCH  45  46
ATOM     46  C   UNK A   3       2.284   3.423  27.060  0.00  0.00    +0.000 C 
ATOM     47  N   UNK A   3       1.716   2.232  26.776  0.00  0.00    +0.000 N 
ATOM     48  H   UNK A   3       0.781   1.996  27.165  0.00  0.00    +0.000 HD
ATOM     49  H   UNK A   3       2.214   1.550  26.168  0.00  0.00    +0.000 HD
ATOM     50  O   UNK A   3       3.405   3.758  26.620  0.00  0.00    +0.000 OA
ENDBRANCH  45  46
ENDBRANCH  44  45
ENDBRANCH  41  44
ENDBRANCH  38  41
ENDBRANCH  32  37
ENDBRANCH  29  30
BRANCH  29  51
ATOM     51  N   UNK A   1      -2.780  -0.493  25.062  0.00  0.00    +0.000 N 
ATOM     52  H   UNK A   1      -2.836   0.524  24.852  0.00  0.00    +0.000 HD
ATOM     53  C   UNK A   0      -3.749  -1.287  24.618  0.00  0.00    +0.000 C 
ATOM     54  O   UNK A   0      -3.949  -2.444  25.051  0.00  0.00    +0.000 OA
BRANCH  53  55
ATOM     55  C   UNK A   0      -4.590  -0.694  23.504  0.00  0.00    +0.000 C 
BRANCH  55  56
ATOM     56  N   UNK A   0      -5.851  -1.415  23.320  0.00  0.00    +0.000 NA
ATOM     57  H   UNK A   0      -6.045  -2.247  23.913  0.00  0.00    +0.000 HD
BRANCH  56  58
ATOM     58  C   UNK A   0      -6.757  -1.043  22.420  0.00  0.00    +0.000 C 
BRANCH  58  59
ATOM     59  O   UNK A   0      -6.573  -0.134  21.557  0.00  0.00    +0.000 OA
BRANCH  59  60
ATOM     60 MG   UNK A   0      -5.946   0.489  19.620  0.00  0.00    +0.000 Mg
BRANCH  60  61
ATOM     61  O   UNK A   0      -6.587   2.469  19.875  0.00  0.00    +0.000 OA
BRANCH  61  62
ATOM     62  C   UNK A   0      -7.583   3.091  19.404  0.00  0.00    +0.000 C 
ATOM     63  O   UNK A   0      -8.623   2.467  19.071  0.00  0.00    +0.000 OA
BRANCH  62  64
ATOM     64  C   UNK A   0      -7.521   4.646  19.177  0.00  0.00    +0.000 C 
BRANCH  64  65
ATOM     65  C   UNK A   0      -8.807   5.196  18.661  0.00  0.00    +0.000 C 
BRANCH  65  66
ATOM     66  C   UNK A   0      -8.827   6.719  18.470  0.00  0.00    +0.000 C 
BRANCH  66  67
ATOM     67  N   UNK A   0      -8.425   7.435  19.742  0.00  0.00    +0.000 N 
ATOM     68  H   UNK A   0      -8.633   7.022  20.673  0.00  0.00    +0.000 HD
ATOM     69  C   UNK A   1      -7.806   8.592  19.642  0.00  0.00    +0.000 C 
ATOM     70  O   UNK A   1      -7.660   9.110  18.558  0.00  0.00    +0.000 OA
BRANCH  69  71
ATOM     71  C   UNK A   1      -7.267   9.270  20.931  0.00  0.00    +0.000 C 
BRANCH  71  72
ATOM     72  N   UNK A   1      -8.236   9.326  21.958  0.00  0.00    +0.000 NA
ATOM     73  H   UNK A   1      -8.081   8.792  22.837  0.00  0.00    +0.000 HD
ENDBRANCH  71  72
BRANCH  71  74
ATOM     74  C   UNK A   1      -5.987   8.586  21.426  0.00  0.00    +0.000 C 
BRANCH  74  75
ATOM     75  C   UNK A   1      -4.917   8.672  20.339  0.00  0.00    +0.000 A 
ATOM     76  C   UNK A   1      -4.347   9.884  20.024  0.00  0.00    +0.000 A 
ATOM     77  C   UNK A   1      -3.465   9.974  19.029  0.00  0.00    +0.000 A 
ATOM     78  C   UNK A   1      -3.166   8.866  18.289  0.00  0.00    +0.000 A 
ATOM     79  C   UNK A   1      -3.726   7.663  18.562  0.00  0.00    +0.000 A 
ATOM     80  C   UNK A   1      -4.602   7.577  19.571  0.00  0.00    +0.000 A 
BRANCH  78  81
ATOM     81  O   UNK A   1      -2.220   8.980  17.304  0.00  0.00    +0.000 OA
ATOM     82  H   UNK A   1      -1.922   9.922  17.241  0.00  0.00    +0.000 HD
ENDBRANCH  78  81
ENDBRANCH  74  75
ENDBRANCH  71  74
ENDBRANCH  69  71
ENDBRANCH  66  67
BRANCH  66  83
ATOM     83  C   UNK A   0     -10.173   7.171  17.869  0.00  0.00    +0.000 C 
ATOM     84  O   UNK A   2     -10.389   7.176  16.645  0.00  0.00    +0.000 OA
ENDBRANCH  66  83
ENDBRANCH  65  66
ENDBRANCH  64  65
ENDBRANCH  62  64
ENDBRANCH  61  62
ENDBRANCH  60  61
ENDBRANCH  59  60
ENDBRANCH  58  59
BRANCH  58  85
ATOM     85  C   UNK A   0      -8.039  -1.820  22.466  0.00  0.00    +0.000 C 
BRANCH  85  86
ATOM     86  N   UNK A   0      -9.058  -1.025  21.801  0.00  0.00    +0.000 N 
ATOM     87  C   UNK A   0     -10.270  -0.775  22.306  0.00  0.00    +0.000 C 
ATOM     88  O   UNK A   0     -10.731  -1.212  23.389  0.00  0.00    +0.000 OA
ATOM     89  H   UNK A   0      -8.829  -0.624  20.869  0.00  0.00    +0.000 HD
BRANCH  87  90
ATOM     90  C   UNK A   0     -11.109   0.092  21.408  0.00  0.00    +0.000 C 
BRANCH  90  91
ATOM     91  N   UNK A   0     -12.432  -0.473  21.150  0.00  0.00    +0.000 N 
ATOM     92  H   UNK A   0     -12.892  -1.043  21.888  0.00  0.00    +0.000 HD
ATOM     93  C   UNK A   0     -13.059  -0.277  20.001  0.00  0.00    +0.000 C 
ATOM     94  O   UNK A   0     -12.560   0.388  19.051  0.00  0.00    +0.000 OA
BRANCH  93  95
ATOM     95  C   UNK A   0     -14.446  -0.885  19.923  0.00  0.00    +0.000 C 
BRANCH  95  96
ATOM     96  N   UNK A   0     -14.473  -2.334  20.148  0.00  0.00    +0.000 N 
ATOM     97  H   UNK A   3     -14.983  -2.714  20.971  0.00  0.00    +0.000 HD
ATOM     98  C   UNK A   2     -13.868  -3.155  19.334  0.00  0.00    +0.000 C 
ATOM     99  O   UNK A   2     -13.035  -2.740  18.562  0.00  0.00    +0.000 OA
BRANCH  98 100
ATOM    100  C   UNK A   2     -14.328  -4.608  19.286  0.00  0.00    +0.000 C 
BRANCH 100 101
ATOM    101  N   UNK A   2     -13.541  -5.319  18.267  0.00  0.00    +0.000 N 
ATOM    102  H   UNK A   2     -12.839  -6.024  18.568  0.00  0.00    +0.000 HD
ATOM    103  C   UNK A   1     -13.709  -5.078  16.959  0.00  0.00    +0.000 C 
ATOM    104  O   UNK A   1     -14.599  -4.326  16.543  0.00  0.00    +0.000 OA
BRANCH 103 105
ATOM    105  C   UNK A   1     -12.758  -5.846  15.982  0.00  0.00    +0.000 C 
BRANCH 105 106
ATOM    106  N   UNK A   1     -13.108  -5.663  14.584  0.00  0.00    +0.000 NA
ATOM    107  H   UNK A   1     -13.701  -4.853  14.313  0.00  0.00    +0.000 HD
ENDBRANCH 105 106
BRANCH 105 108
ATOM    108  C   UNK A   1     -11.268  -5.446  16.162  0.00  0.00    +0.000 C 
ATOM    109  C   UNK A   1     -11.090  -3.927  16.078  0.00  0.00    +0.000 C 
BRANCH 108 110
ATOM    110  O   UNK A   1     -10.783  -5.937  17.392  0.00  0.00    +0.000 OA
ATOM    111  H   UNK A   1     -10.860  -6.924  17.406  0.00  0.00    +0.000 HD
ENDBRANCH 108 110
ENDBRANCH 105 108
ENDBRANCH 103 105
ENDBRANCH 100 101
BRANCH 100 112
ATOM    112  C   UNK A   2     -14.295  -5.349  20.620  0.00  0.00    +0.000 C 
BRANCH 112 113
ATOM    113  C   UNK A   2     -12.920  -5.423  21.154  0.00  0.00    +0.000 C 
ATOM    114  O   UNK A   2     -12.421  -4.503  21.842  0.00  0.00    +0.000 OA
ATOM    115  N   UNK A   2     -12.251  -6.437  20.759  0.00  0.00    +0.000 N 
ATOM    116  H   UNK A   2     -11.245  -6.525  21.007  0.00  0.00    +0.000 HD
ATOM    117  H   UNK A   2     -12.712  -7.175  20.189  0.00  0.00    +0.000 HD
ENDBRANCH 112 113
ENDBRANCH 100 112
ENDBRANCH  98 100
ENDBRANCH  95  96
BRANCH  95 118
ATOM    118  C   UNK A   0     -15.324  -0.240  20.959  0.00  0.00    +0.000 C 
BRANCH 118 119
ATOM    119  O   UNK A   3     -16.586  -0.848  20.996  0.00  0.00    +0.000 OA
ATOM    120  H   UNK A   3     -17.020  -0.759  20.111  0.00  0.00    +0.000 HD
ENDBRANCH 118 119
ENDBRANCH  95 118
ENDBRANCH  93  95
ENDBRANCH  90  91
BRANCH  90 121
ATOM    121  C   UNK A   0     -11.026   1.654  21.743  0.00  0.00    +0.000 C 
ATOM    122  C   UNK A   0     -10.210   2.019  22.871  0.00  0.00    +0.000 C 
ATOM    123  C   UNK A   0     -12.318   2.447  21.625  0.00  0.00    +0.000 C 
ENDBRANCH  90 121
ENDBRANCH  87  90
ENDBRANCH  85  86
BRANCH  85 124
ATOM    124  C   UNK A   0      -7.833  -3.163  21.751  0.00  0.00    +0.000 C 
ATOM    125  S   UNK A   0      -9.308  -4.180  21.600  0.00  0.00    +0.000 S 
ENDBRANCH  85 124
ENDBRANCH  58  85
ENDBRANCH  56  58
ENDBRANCH  55  56
ENDBRANCH  53  55
ENDBRANCH  29  51
ENDBRANCH  28  29
ENDBRANCH  25  28
ENDBRANCH   1  23
BRANCH   1 128
ATOM    126  C   UNK A   1       3.117  -5.712  19.219  0.00  0.00    +0.000 A 
ATOM    127  C   UNK A   1       2.164  -6.342  19.940  0.00  0.00    +0.000 A 
ATOM    128  N   UNK A   1       1.806  -5.492  20.955  0.00  0.00    +0.000 N 
ATOM    129  C   UNK A   1       2.534  -4.387  20.882  0.00  0.00    +0.000 A 
ATOM    130  N   UNK A   1       3.346  -4.506  19.855  0.00  0.00    +0.000 NA
BRANCH 126 131
ATOM    131  C   UNK A   1       3.901  -6.164  18.024  0.00  0.00    +0.000 C 
BRANCH 131 132
ATOM    132  C   UNK A   1       5.228  -6.828  18.401  0.00  0.00    +0.000 C 
BRANCH 132 133
ATOM    133  N   UNK A   1       6.136  -5.883  19.131  0.00  0.00    +0.000 NA
ATOM    134  H   UNK A   1       6.251  -4.905  18.798  0.00  0.00    +0.000 HD
ENDBRANCH 132 133
BRANCH 132 135
ATOM    135  C   UNK A   1       5.880  -7.414  17.191  0.00  0.00    +0.000 C 
ATOM    136  O   UNK A   1       6.170  -6.697  16.238  0.00  0.00    +0.000 OA
ENDBRANCH 132 135
ENDBRANCH 131 132
ENDBRANCH 126 131
ENDBRANCH   1 128
BRANCH   1 137
ATOM    137  N   UNK A   1       1.510  -6.462  23.876  0.00  0.00    +0.000 N 
ATOM    138  C   UNK A   1       1.793  -6.105  25.177  0.00  0.00    +0.000 A 
ATOM    139  C   UNK A   1       2.714  -6.986  25.633  0.00  0.00    +0.000 A 
ATOM    140  N   UNK A   1       2.933  -7.879  24.599  0.00  0.00    +0.000 NA
ATOM    141  C   UNK A   1       2.180  -7.553  23.566  0.00  0.00    +0.000 A 
BRANCH 139 142
ATOM    142  C   UNK A   1       3.403  -7.099  26.964  0.00  0.00    +0.000 C 
BRANCH 142 143
ATOM    143  C   UNK A   1       2.687  -8.041  27.955  0.00  0.00    +0.000 C 
BRANCH 143 144
ATOM    144  C   UNK A   1       1.288  -7.563  28.273  0.00  0.00    +0.000 C 
ATOM    145  N   UNK A   2       1.223  -6.352  28.842  0.00  0.00    +0.000 N 
ATOM    146  H   UNK A   2       2.099  -5.802  28.949  0.00  0.00    +0.000 HD
ATOM    147  O   UNK A   1       0.290  -8.284  27.999  0.00  0.00    +0.000 OA
BRANCH 145 148
ATOM    148  C   UNK A   2      -0.055  -5.765  29.326  0.00  0.00    +0.000 C 
BRANCH 148 149
ATOM    149  C   UNK A   2      -0.844  -5.001  28.202  0.00  0.00    +0.000 C 
ATOM    150  N   UNK A   3      -2.135  -5.333  28.062  0.00  0.00    +0.000 N 
ATOM    151  H   UNK A   3      -2.531  -6.058  28.694  0.00  0.00    +0.000 HD
ATOM    152  O   UNK A   2      -0.281  -4.149  27.485  0.00  0.00    +0.000 OA
BRANCH 150 153
ATOM    153  C   UNK A   3      -3.013  -4.727  27.065  0.00  0.00    +0.000 C 
ATOM    154  C   UNK A   3      -3.117  -5.646  25.863  0.00  0.00    +0.000 C 
BRANCH 153 155
ATOM    155  C   UNK A   3      -4.366  -4.502  27.756  0.00  0.00    +0.000 C 
ATOM    156  O   UNK A   3      -4.487  -4.843  28.932  0.00  0.00    +0.000 OA
ATOM    157  N   VAL A   4      -5.355  -3.909  27.057  0.00  0.00    +0.000 N 
ATOM    158  H   VAL A   4      -5.112  -3.415  26.175  0.00  0.00    +0.000 HD
BRANCH 157 159
ATOM    159  CA  VAL A   4      -6.802  -3.929  27.497  0.00  0.00    +0.000 C 
BRANCH 159 160
ATOM    160  C   VAL A   4      -7.662  -4.046  26.252  0.00  0.00    +0.000 C 
ATOM    161  N   CYS A   5      -8.906  -4.494  26.383  0.00  0.00    +0.000 N 
ATOM    162  H   CYS A   5      -9.159  -4.992  27.261  0.00  0.00    +0.000 HD
ATOM    163  O   VAL A   4      -7.215  -3.685  25.203  0.00  0.00    +0.000 OA
BRANCH 161 164
ATOM    164  CA  CYS A   5      -9.938  -4.327  25.364  0.00  0.00    +0.000 C 
BRANCH 164 165
ATOM    165  C   CYS A   5     -11.127  -3.721  26.026  0.00  0.00    +0.000 C 
ATOM    166  O   CYS A   5     -11.364  -3.961  27.226  0.00  0.00    +0.000 OA
ATOM    167  N   PRO A   6     -11.877  -2.931  25.237  0.00  0.00    +0.000 N 
ATOM    168  H   PRO A   6     -11.583  -2.776  24.252  0.00  0.00    +0.000 HD
BRANCH 167 169
ATOM    169  CA  PRO A   6     -13.082  -2.291  25.720  0.00  0.00    +0.000 C 
BRANCH 169 170
ATOM    170  C   PRO A   6     -14.161  -2.410  24.640  0.00  0.00    +0.000 C 
ATOM    171  O   PRO A   6     -13.856  -2.324  23.426  0.00  0.00    +0.000 OA
ENDBRANCH 169 170
BRANCH 169 172
ATOM    172  CB  PRO A   6     -12.762  -0.839  26.102  0.00  0.00    +0.000 C 
BRANCH 172 173
ATOM    173  O   PRO A   6     -12.680   0.003  24.935  0.00  0.00    +0.000 OA
ATOM    174  H   PRO A   6     -11.965  -0.331  24.338  0.00  0.00    +0.000 HD
ENDBRANCH 172 173
ENDBRANCH 169 172
ENDBRANCH 167 169
ENDBRANCH 164 165
BRANCH 164 175
ATOM    175  CB  CYS A   5     -10.367  -5.641  24.753  0.00  0.00    +0.000 C 
BRANCH 175 176
ATOM    176  O   CYS A   5      -9.233  -6.218  24.149  0.00  0.00    +0.000 OA
ATOM    177  H   CYS A   5      -8.886  -5.608  23.450  0.00  0.00    +0.000 HD
ENDBRANCH 175 176
ENDBRANCH 164 175
ENDBRANCH 161 164
ENDBRANCH 159 160
BRANCH 159 178
ATOM    178  CB  VAL A   4      -7.204  -2.639  28.260  0.00  0.00    +0.000 C 
BRANCH 178 179
ATOM    179  CG  VAL A   4      -7.177  -1.394  27.372  0.00  0.00    +0.000 A 
ATOM    180  CD2 VAL A   4      -6.051  -0.591  27.301  0.00  0.00    +0.000 A 
ATOM    181  CE2 VAL A   4      -5.989   0.529  26.416  0.00  0.00    +0.000 A 
ATOM    182  CZ  VAL A   4      -7.023   0.809  25.619  0.00  0.00    +0.000 A 
ATOM    183  CE1 VAL A   4      -8.171   0.014  25.670  0.00  0.00    +0.000 A 
ATOM    184  CD1 VAL A   4      -8.235  -1.092  26.540  0.00  0.00    +0.000 A 
ENDBRANCH 178 179
ENDBRANCH 159 178
ENDBRANCH 157 159
ENDBRANCH 153 155
ENDBRANCH 150 153
ENDBRANCH 148 149
BRANCH 148 185
ATOM    185  C   UNK A   2       0.202  -4.818  30.536  0.00  0.00    +0.000 C 
BRANCH 185 186
ATOM    186  C   UNK A   2      -1.040  -4.426  31.365  0.00  0.00    +0.000 C 
ATOM    187  C   UNK A   2      -0.731  -3.361  32.404  0.00  0.00    +0.000 C 
ATOM    188  C   UNK A   2      -1.781  -5.709  32.037  0.00  0.00    +0.000 C 
ENDBRANCH 185 186
ENDBRANCH 148 185
ENDBRANCH 145 148
ENDBRANCH 143 144
BRANCH 143 189
ATOM    189  N   UNK A   1       2.688  -9.432  27.469  0.00  0.00    +0.000 NA
ATOM    190  H   UNK A   1       1.833  -9.869  27.069  0.00  0.00    +0.000 HD
ENDBRANCH 143 189
ENDBRANCH 142 143
ENDBRANCH 139 142
ENDBRANCH   1 137
BRANCH   6 191
ATOM    191  C   UNK A   1      -1.935 -10.950  27.226  0.00  0.00    +0.000 C 
ATOM    192  N   VAL A   4      -1.691 -10.318  28.377  0.00  0.00    +0.000 N 
ATOM    193  H   VAL A   4      -0.818  -9.758  28.458  0.00  0.00    +0.000 HD
ATOM    194  O   UNK A   1      -2.648 -11.932  27.105  0.00  0.00    +0.000 OA
BRANCH 192 195
ATOM    195  CA  VAL A   4      -2.565 -10.372  29.497  0.00  0.00    +0.000 C 
BRANCH 195 196
ATOM    196  C   VAL A   4      -3.472  -9.186  29.155  0.00  0.00    +0.000 C 
ATOM    197  O   VAL A   4      -2.988  -8.047  29.007  0.00  0.00    +0.000 OA
ATOM    198  N   CYS A   5      -4.757  -9.449  28.941  0.00  0.00    +0.000 N 
ATOM    199  H   CYS A   5      -5.157 -10.363  29.235  0.00  0.00    +0.000 HD
BRANCH 198 200
ATOM    200  CA  CYS A   5      -5.601  -8.463  28.298  0.00  0.00    +0.000 C 
BRANCH 200 201
ATOM    201  C   CYS A   5      -6.964  -8.304  28.988  0.00  0.00    +0.000 C 
ATOM    202  N   PRO A   6      -6.992  -7.675  30.202  0.00  0.00    +0.000 N 
ATOM    203  CD  PRO A   6      -5.878  -7.218  31.047  0.00  0.00    +0.000 C 
ATOM    204  CG  PRO A   6      -6.471  -6.030  31.742  0.00  0.00    +0.000 C 
ATOM    205  CB  PRO A   6      -7.863  -6.519  32.097  0.00  0.00    +0.000 C 
ATOM    206  CA  PRO A   6      -8.275  -7.333  30.811  0.00  0.00    +0.000 C 
ATOM    207  O   CYS A   5      -8.011  -8.642  28.379  0.00  0.00    +0.000 OA
BRANCH 206 208
ATOM    208  C   PRO A   6      -9.275  -6.612  29.868  0.00  0.00    +0.000 C 
ATOM    209  O   PRO A   6      -8.911  -5.737  29.086  0.00  0.00    +0.000 OA
ENDBRANCH 206 208
ENDBRANCH 200 201
BRANCH 200 210
ATOM    210  CB  CYS A   5      -5.800  -8.835  26.798  0.00  0.00    +0.000 C 
ATOM    211  SG  CYS A   5      -6.654  -7.551  25.737  0.00  0.00    +0.000 S 
ENDBRANCH 200 210
ENDBRANCH 198 200
ENDBRANCH 195 196
BRANCH 195 212
ATOM    212  CB  VAL A   4      -1.776 -10.198  30.837  0.00  0.00    +0.000 C 
ATOM    213  CG2 VAL A   4      -2.762  -9.845  32.036  0.00  0.00    +0.000 C 
ATOM    214  CG1 VAL A   4      -0.969 -11.507  31.192  0.00  0.00    +0.000 C 
ENDBRANCH 195 212
ENDBRANCH 192 195
ENDBRANCH   6 191
BRANCH  16 215
ATOM    215  N   UNK A   1       0.379 -11.264  18.763  0.00  0.00    +0.000 NA
ATOM    216  H   UNK A   1      -0.310 -11.879  18.285  0.00  0.00    +0.000 HD
ENDBRANCH  16 215
BRANCH  11 217
ATOM    217  C   UNK A   2       2.321 -12.652  23.412  0.00  0.00    +0.000 C 
BRANCH 217 218
ATOM    218  C   UNK A   2       2.493 -13.902  24.257  0.00  0.00    +0.000 C 
ATOM    219  O   UNK A   2       1.505 -14.519  24.737  0.00  0.00    +0.000 OA
ATOM    220  N   UNK A   2       3.765 -14.285  24.470  0.00  0.00    +0.000 N 
ATOM    221  H   UNK A   2       3.965 -15.123  25.052  0.00  0.00    +0.000 HD
ATOM    222  H   UNK A   2       4.548 -13.743  24.052  0.00  0.00    +0.000 HD
ENDBRANCH 217 218
ENDBRANCH  11 217
TORSDOF 85
REMARK  Name = ../refined-set-2016/2vnp/2vnp_pocket.pdb
REMARK  182 active torsions:
REMARK  status: ('A' for Active; 'I' for Inactive)
REMARK    1  A    between atoms: _1  and  _5
REMARK    2  A    between atoms: _5  and  _6
REMARK    3  A    between atoms: _5  and  _8
REMARK    4  A    between atoms: _8  and  _9
REMARK    5  A    between atoms: _9  and  _10
REMARK    6  A    between atoms: _13  and  _15
REMARK    7  A    between atoms: _15  and  _16
REMARK    8  A    between atoms: _15  and  _18
REMARK    9  A    between atoms: _18  and  _19
REMARK   10  A    between atoms: _24  and  _26
REMARK   11  A    between atoms: _26  and  _27
REMARK   12  A    between atoms: _26  and  _29
REMARK   13  A    between atoms: _32  and  _34
REMARK   14  A    between atoms: _34  and  _35
REMARK   15  A    between atoms: _34  and  _37
REMARK   16  A    between atoms: _37  and  _38
REMARK   17  A    between atoms: _38  and  _39
REMARK   18  A    between atoms: _39  and  _40
REMARK   19  A    between atoms: _40  and  _41
REMARK   20  A    between atoms: _45  and  _47
REMARK   21  A    between atoms: _47  and  _48
REMARK   22  A    between atoms: _47  and  _50
REMARK   23  A    between atoms: _50  and  _51
REMARK   24  A    between atoms: _56  and  _57
REMARK   25  A    between atoms: _59  and  _61
REMARK   26  A    between atoms: _61  and  _62
REMARK   27  A    between atoms: _61  and  _64
REMARK   28  A    between atoms: _64  and  _65
REMARK   29  A    between atoms: _69  and  MN_472
REMARK   30  A    between atoms: _70  and  _72
REMARK   31  A    between atoms: _72  and  _73
REMARK   32  A    between atoms: _72  and  _75
REMARK   33  A    between atoms: _75  and  _76
REMARK   34  A    between atoms: _80  and  MN_472
REMARK   35  A    between atoms: _81  and  _83
REMARK   36  A    between atoms: _83  and  _84
REMARK   37  A    between atoms: _83  and  _86
REMARK   38  A    between atoms: _86  and  _87
REMARK   39  A    between atoms: _90  and  _92
REMARK   40  A    between atoms: _92  and  _93
REMARK   41  A    between atoms: _96  and  _98
REMARK   42  A    between atoms: _98  and  _99
REMARK   43  A    between atoms: _98  and  _101
REMARK   44  A    between atoms: _101  and  _102
REMARK   45  A    between atoms: _108  and  _110
REMARK   46  A    between atoms: _110  and  _111
REMARK   47  A    between atoms: _110  and  _113
REMARK   48  A    between atoms: _113  and  _114
REMARK   49  A    between atoms: _116  and  _118
REMARK   50  A    between atoms: _118  and  _119
REMARK   51  A    between atoms: _118  and  _121
REMARK   52  A    between atoms: _121  and  _122
REMARK   53  A    between atoms: _124  and  _126
REMARK   54  A    between atoms: _126  and  _127
REMARK   55  A    between atoms: _126  and  _129
REMARK   56  A    between atoms: _129  and  _130
REMARK   57  A    between atoms: _130  and  _131
REMARK   58  A    between atoms: _131  and  _132
REMARK   59  A    between atoms: _141  and  _143
REMARK   60  A    between atoms: _143  and  _144
REMARK   61  A    between atoms: _147  and  _149
REMARK   62  A    between atoms: _149  and  _150
REMARK   63  A    between atoms: _149  and  _152
REMARK   64  A    between atoms: _152  and  _153
REMARK   65  A    between atoms: _153  and  _154
REMARK   66  A    between atoms: _154  and  _155
REMARK   67  A    between atoms: _155  and  _156
REMARK   68  A    between atoms: _160  and  _162
REMARK   69  A    between atoms: _162  and  _163
REMARK   70  A    between atoms: _162  and  _165
REMARK   71  A    between atoms: _165  and  _166
REMARK   72  A    between atoms: _166  and  _167
REMARK   73  A    between atoms: _167  and  _168
REMARK   74  A    between atoms: _168  and  _169
REMARK   75  A    between atoms: _173  and  _175
REMARK   76  A    between atoms: _175  and  _176
REMARK   77  A    between atoms: _179  and  _181
REMARK   78  A    between atoms: _181  and  _182
REMARK   79  A    between atoms: _181  and  _184
REMARK   80  A    between atoms: _184  and  _185
REMARK   81  A    between atoms: _195  and  _197
REMARK   82  A    between atoms: _197  and  _198
REMARK   83  A    between atoms: _197  and  _200
REMARK   84  A    between atoms: _200  and  _201
REMARK   85  A    between atoms: _204  and  _206
REMARK   86  A    between atoms: _206  and  _207
REMARK   87  A    between atoms: _206  and  _209
REMARK   88  A    between atoms: _209  and  _210
REMARK   89  A    between atoms: _215  and  _217
REMARK   90  A    between atoms: _217  and  _218
REMARK   91  A    between atoms: _217  and  _220
REMARK   92  A    between atoms: _220  and  _221
REMARK   93  A    between atoms: _223  and  _225
REMARK   94  A    between atoms: _225  and  _226
REMARK   95  A    between atoms: _225  and  _228
REMARK   96  A    between atoms: _231  and  _233
REMARK   97  A    between atoms: _233  and  _234
REMARK   98  A    between atoms: _233  and  _236
REMARK   99  A    between atoms: _234  and  _235
REMARK  100  A    between atoms: _234  and  _238
REMARK  101  A    between atoms: _235  and  MG_473
REMARK  102  A    between atoms: _238  and  _240
REMARK  103  A    between atoms: _240  and  _241
REMARK  104  A    between atoms: _243  and  _245
REMARK  105  A    between atoms: _245  and  _246
REMARK  106  A    between atoms: _245  and  _248
REMARK  107  A    between atoms: _248  and  _249
REMARK  108  A    between atoms: _253  and  MN_472
REMARK  109  A    between atoms: _255  and  _256
REMARK  110  A    between atoms: _261  and  _263
REMARK  111  A    between atoms: _263  and  _264
REMARK  112  A    between atoms: _263  and  _266
REMARK  113  A    between atoms: _266  and  _267
REMARK  114  A    between atoms: _267  and  _268
REMARK  115  A    between atoms: _273  and  _275
REMARK  116  A    between atoms: _275  and  _276
REMARK  117  A    between atoms: _275  and  _278
REMARK  118  A    between atoms: _278  and  _279
REMARK  119  A    between atoms: _279  and  _280
REMARK  120  A    between atoms: _280  and  _281
REMARK  121  A    between atoms: _290  and  _292
REMARK  122  A    between atoms: _292  and  _293
REMARK  123  A    between atoms: _292  and  _295
REMARK  124  A    between atoms: _295  and  _296
REMARK  125  A    between atoms: _296  and  _297
REMARK  126  A    between atoms: _297  and  _298
REMARK  127  A    between atoms: _307  and  _309
REMARK  128  A    between atoms: _309  and  _310
REMARK  129  A    between atoms: _309  and  _312
REMARK  130  A    between atoms: _312  and  _313
REMARK  131  A    between atoms: _318  and  _319
REMARK  132  A    between atoms: _321  and  _323
REMARK  133  A    between atoms: _323  and  _324
REMARK  134  A    between atoms: _323  and  _326
REMARK  135  A    between atoms: _326  and  _327
REMARK  136  A    between atoms: _327  and  _328
REMARK  137  A    between atoms: _328  and  _330
REMARK  138  A    between atoms: _330  and  MG_473
REMARK  139  A    between atoms: _331  and  _333
REMARK  140  A    between atoms: _333  and  _334
REMARK  141  A    between atoms: _333  and  _336
REMARK  142  A    between atoms: _336  and  _337
REMARK  143  A    between atoms: _343  and  _345
REMARK  144  A    between atoms: _345  and  _346
REMARK  145  A    between atoms: _345  and  _348
REMARK  146  A    between atoms: _348  and  _349
REMARK  147  A    between atoms: _354  and  _355
REMARK  148  A    between atoms: _357  and  _359
REMARK  149  A    between atoms: _369  and  _372
REMARK  150  A    between atoms: _372  and  _373
REMARK  151  A    between atoms: _380  and  _381
REMARK  152  A    between atoms: _388  and  _390
REMARK  153  A    between atoms: _390  and  _391
REMARK  154  A    between atoms: _390  and  _393
REMARK  155  A    between atoms: _396  and  _398
REMARK  156  A    between atoms: _398  and  _399
REMARK  157  A    between atoms: _398  and  _401
REMARK  158  A    between atoms: _404  and  _405
REMARK  159  A    between atoms: _410  and  _412
REMARK  160  A    between atoms: _412  and  _413
REMARK  161  A    between atoms: _412  and  _415
REMARK  162  A    between atoms: _415  and  _416
REMARK  163  A    between atoms: _416  and  _417
REMARK  164  A    between atoms: _420  and  _422
REMARK  165  A    between atoms: _422  and  _423
REMARK  166  A    between atoms: _422  and  _425
REMARK  167  A    between atoms: _425  and  _426
REMARK  168  A    between atoms: _429  and  _430
REMARK  169  A    between atoms: _435  and  _437
REMARK  170  A    between atoms: _437  and  _438
REMARK  171  A    between atoms: _437  and  _440
REMARK  172  A    between atoms: _440  and  _441
REMARK  173  A    between atoms: _451  and  _453
REMARK  174  A    between atoms: _453  and  _454
REMARK  175  A    between atoms: _453  and  _456
REMARK  176  A    between atoms: _456  and  _457
REMARK  177  A    between atoms: _457  and  _458
REMARK  178  A    between atoms: _460  and  _462
REMARK  179  A    between atoms: _462  and  _463
REMARK  180  A    between atoms: _462  and  _465
REMARK  181  A    between atoms: _465  and  _466
REMARK  182  A    between atoms: _466  and  _467
REMARK                            x       y       z     vdW  Elec       q    Type
REMARK                         _______ _______ _______ _____ _____    ______ ____
ROOT
ATOM      1  CB  ARG A   1      -7.639  -2.246  12.866  0.00  0.00    +0.030 C 
ENDROOT
BRANCH   1   2
ATOM      2  CA  ARG A   1      -8.556  -1.207  12.341  0.00  0.00    +0.145 C 
BRANCH   2   3
ATOM      3  C   ARG A   1      -7.965  -0.660  11.022  0.00  0.00    +0.238 C 
ATOM      4  N   ALA A   2      -7.273   0.509  11.051  0.00  0.00    -0.298 N 
ATOM      5  H   ALA A   2      -7.166   1.014  11.954  0.00  0.00    +0.150 HD
ATOM      6  O   ARG A   1      -8.164  -1.313   9.965  0.00  0.00    -0.274 OA
BRANCH   4   7
ATOM      7  CA  ALA A   2      -6.668   1.080   9.825  0.00  0.00    +0.137 C 
ATOM      8  CB  ALA A   2      -5.923   2.379  10.113  0.00  0.00    +0.030 C 
BRANCH   7   9
ATOM      9  C   ALA A   2      -5.738   0.091   9.120  0.00  0.00    +0.227 C 
ATOM     10  O   ALA A   2      -5.284  -0.900   9.727  0.00  0.00    -0.286 OA
ENDBRANCH   7   9
ENDBRANCH   4   7
ENDBRANCH   2   3
BRANCH   2  11
ATOM     11  N   ARG A   1      -9.875  -1.852  12.127  0.00  0.00    -0.238 NA
ATOM     12  H   ARG A   1      -9.999  -2.863  12.336  0.00  0.00    +0.142 HD
ENDBRANCH   2  11
ENDBRANCH   1   2
BRANCH   1  13
ATOM     13  CG  ARG A   1      -8.161  -2.927  14.130  0.00  0.00    +0.045 C 
BRANCH  13  14
ATOM     14  CD  ARG A   1      -7.304  -4.146  14.565  0.00  0.00    +0.174 C 
BRANCH  14  15
ATOM     15  NE  ARG A   1      -5.813  -4.029  14.661  0.00  0.00    -0.265 N 
ATOM     16  CZ  ARG A   1      -5.160  -3.502  15.706  0.00  0.00    +0.342 C 
ATOM     17  NH2 ARG A   1      -5.833  -2.981  16.741  0.00  0.00    -0.292 N 
ATOM     18 HH21 ARG A   1      -5.315  -2.575  17.546  0.00  0.00    +0.255 HD
ATOM     19 HH22 ARG A   1      -6.873  -2.983  16.739  0.00  0.00    +0.255 HD
ATOM     20  NH1 ARG A   1      -3.832  -3.517  15.759  0.00  0.00    -0.292 N 
ATOM     21 HH11 ARG A   1      -3.340  -3.104  16.577  0.00  0.00    +0.255 HD
ATOM     22 HH12 ARG A   1      -3.285  -3.942  14.983  0.00  0.00    +0.255 HD
ATOM     23  HE  ARG A   1      -5.247  -4.381  13.863  0.00  0.00    +0.259 HD
ENDBRANCH  14  15
ENDBRANCH  13  14
ENDBRANCH   1  13
TORSDOF 8
REMARK  Name = ../refined-set-2016/2vnp/2vnp_pocket.pdb
REMARK  182 active torsions:
REMARK  status: ('A' for Active; 'I' for Inactive)
REMARK    1  A    between atoms: _1  and  _5
REMARK    2  A    between atoms: _5  and  _6
REMARK    3  A    between atoms: _5  and  _8
REMARK    4  A    between atoms: _8  and  _9
REMARK    5  A    between atoms: _9  and  _10
REMARK    6  A    between atoms: _13  and  _15
REMARK    7  A    between atoms: _15  and  _16
REMARK    8  A    between atoms: _15  and  _18
REMARK    9  A    between atoms: _18  and  _19
REMARK   10  A    between atoms: _24  and  _26
REMARK   11  A    between atoms: _26  and  _27
REMARK   12  A    between atoms: _26  and  _29
REMARK   13  A    between atoms: _32  and  _34
REMARK   14  A    between atoms: _34  and  _35
REMARK   15  A    between atoms: _34  and  _37
REMARK   16  A    between atoms: _37  and  _38
REMARK   17  A    between atoms: _38  and  _39
REMARK   18  A    between atoms: _39  and  _40
REMARK   19  A    between atoms: _40  and  _41
REMARK   20  A    between atoms: _45  and  _47
REMARK   21  A    between atoms: _47  and  _48
REMARK   22  A    between atoms: _47  and  _50
REMARK   23  A    between atoms: _50  and  _51
REMARK   24  A    between atoms: _56  and  _57
REMARK   25  A    between atoms: _59  and  _61
REMARK   26  A    between atoms: _61  and  _62
REMARK   27  A    between atoms: _61  and  _64
REMARK   28  A    between atoms: _64  and  _65
REMARK   29  A    between atoms: _69  and  MN_472
REMARK   30  A    between atoms: _70  and  _72
REMARK   31  A    between atoms: _72  and  _73
REMARK   32  A    between atoms: _72  and  _75
REMARK   33  A    between atoms: _75  and  _76
REMARK   34  A    between atoms: _80  and  MN_472
REMARK   35  A    between atoms: _81  and  _83
REMARK   36  A    between atoms: _83  and  _84
REMARK   37  A    between atoms: _83  and  _86
REMARK   38  A    between atoms: _86  and  _87
REMARK   39  A    between atoms: _90  and  _92
REMARK   40  A    between atoms: _92  and  _93
REMARK   41  A    between atoms: _96  and  _98
REMARK   42  A    between atoms: _98  and  _99
REMARK   43  A    between atoms: _98  and  _101
REMARK   44  A    between atoms: _101  and  _102
REMARK   45  A    between atoms: _108  and  _110
REMARK   46  A    between atoms: _110  and  _111
REMARK   47  A    between atoms: _110  and  _113
REMARK   48  A    between atoms: _113  and  _114
REMARK   49  A    between atoms: _116  and  _118
REMARK   50  A    between atoms: _118  and  _119
REMARK   51  A    between atoms: _118  and  _121
REMARK   52  A    between atoms: _121  and  _122
REMARK   53  A    between atoms: _124  and  _126
REMARK   54  A    between atoms: _126  and  _127
REMARK   55  A    between atoms: _126  and  _129
REMARK   56  A    between atoms: _129  and  _130
REMARK   57  A    between atoms: _130  and  _131
REMARK   58  A    between atoms: _131  and  _132
REMARK   59  A    between atoms: _141  and  _143
REMARK   60  A    between atoms: _143  and  _144
REMARK   61  A    between atoms: _147  and  _149
REMARK   62  A    between atoms: _149  and  _150
REMARK   63  A    between atoms: _149  and  _152
REMARK   64  A    between atoms: _152  and  _153
REMARK   65  A    between atoms: _153  and  _154
REMARK   66  A    between atoms: _154  and  _155
REMARK   67  A    between atoms: _155  and  _156
REMARK   68  A    between atoms: _160  and  _162
REMARK   69  A    between atoms: _162  and  _163
REMARK   70  A    between atoms: _162  and  _165
REMARK   71  A    between atoms: _165  and  _166
REMARK   72  A    between atoms: _166  and  _167
REMARK   73  A    between atoms: _167  and  _168
REMARK   74  A    between atoms: _168  and  _169
REMARK   75  A    between atoms: _173  and  _175
REMARK   76  A    between atoms: _175  and  _176
REMARK   77  A    between atoms: _179  and  _181
REMARK   78  A    between atoms: _181  and  _182
REMARK   79  A    between atoms: _181  and  _184
REMARK   80  A    between atoms: _184  and  _185
REMARK   81  A    between atoms: _195  and  _197
REMARK   82  A    between atoms: _197  and  _198
REMARK   83  A    between atoms: _197  and  _200
REMARK   84  A    between atoms: _200  and  _201
REMARK   85  A    between atoms: _204  and  _206
REMARK   86  A    between atoms: _206  and  _207
REMARK   87  A    between atoms: _206  and  _209
REMARK   88  A    between atoms: _209  and  _210
REMARK   89  A    between atoms: _215  and  _217
REMARK   90  A    between atoms: _217  and  _218
REMARK   91  A    between atoms: _217  and  _220
REMARK   92  A    between atoms: _220  and  _221
REMARK   93  A    between atoms: _223  and  _225
REMARK   94  A    between atoms: _225  and  _226
REMARK   95  A    between atoms: _225  and  _228
REMARK   96  A    between atoms: _231  and  _233
REMARK   97  A    between atoms: _233  and  _234
REMARK   98  A    between atoms: _233  and  _236
REMARK   99  A    between atoms: _234  and  _235
REMARK  100  A    between atoms: _234  and  _238
REMARK  101  A    between atoms: _235  and  MG_473
REMARK  102  A    between atoms: _238  and  _240
REMARK  103  A    between atoms: _240  and  _241
REMARK  104  A    between atoms: _243  and  _245
REMARK  105  A    between atoms: _245  and  _246
REMARK  106  A    between atoms: _245  and  _248
REMARK  107  A    between atoms: _248  and  _249
REMARK  108  A    between atoms: _253  and  MN_472
REMARK  109  A    between atoms: _255  and  _256
REMARK  110  A    between atoms: _261  and  _263
REMARK  111  A    between atoms: _263  and  _264
REMARK  112  A    between atoms: _263  and  _266
REMARK  113  A    between atoms: _266  and  _267
REMARK  114  A    between atoms: _267  and  _268
REMARK  115  A    between atoms: _273  and  _275
REMARK  116  A    between atoms: _275  and  _276
REMARK  117  A    between atoms: _275  and  _278
REMARK  118  A    between atoms: _278  and  _279
REMARK  119  A    between atoms: _279  and  _280
REMARK  120  A    between atoms: _280  and  _281
REMARK  121  A    between atoms: _290  and  _292
REMARK  122  A    between atoms: _292  and  _293
REMARK  123  A    between atoms: _292  and  _295
REMARK  124  A    between atoms: _295  and  _296
REMARK  125  A    between atoms: _296  and  _297
REMARK  126  A    between atoms: _297  and  _298
REMARK  127  A    between atoms: _307  and  _309
REMARK  128  A    between atoms: _309  and  _310
REMARK  129  A    between atoms: _309  and  _312
REMARK  130  A    between atoms: _312  and  _313
REMARK  131  A    between atoms: _318  and  _319
REMARK  132  A    between atoms: _321  and  _323
REMARK  133  A    between atoms: _323  and  _324
REMARK  134  A    between atoms: _323  and  _326
REMARK  135  A    between atoms: _326  and  _327
REMARK  136  A    between atoms: _327  and  _328
REMARK  137  A    between atoms: _328  and  _330
REMARK  138  A    between atoms: _330  and  MG_473
REMARK  139  A    between atoms: _331  and  _333
REMARK  140  A    between atoms: _333  and  _334
REMARK  141  A    between atoms: _333  and  _336
REMARK  142  A    between atoms: _336  and  _337
REMARK  143  A    between atoms: _343  and  _345
REMARK  144  A    between atoms: _345  and  _346
REMARK  145  A    between atoms: _345  and  _348
REMARK  146  A    between atoms: _348  and  _349
REMARK  147  A    between atoms: _354  and  _355
REMARK  148  A    between atoms: _357  and  _359
REMARK  149  A    between atoms: _369  and  _372
REMARK  150  A    between atoms: _372  and  _373
REMARK  151  A    between atoms: _380  and  _381
REMARK  152  A    between atoms: _388  and  _390
REMARK  153  A    between atoms: _390  and  _391
REMARK  154  A    between atoms: _390  and  _393
REMARK  155  A    between atoms: _396  and  _398
REMARK  156  A    between atoms: _398  and  _399
REMARK  157  A    between atoms: _398  and  _401
REMARK  158  A    between atoms: _404  and  _405
REMARK  159  A    between atoms: _410  and  _412
REMARK  160  A    between atoms: _412  and  _413
REMARK  161  A    between atoms: _412  and  _415
REMARK  162  A    between atoms: _415  and  _416
REMARK  163  A    between atoms: _416  and  _417
REMARK  164  A    between atoms: _420  and  _422
REMARK  165  A    between atoms: _422  and  _423
REMARK  166  A    between atoms: _422  and  _425
REMARK  167  A    between atoms: _425  and  _426
REMARK  168  A    between atoms: _429  and  _430
REMARK  169  A    between atoms: _435  and  _437
REMARK  170  A    between atoms: _437  and  _438
REMARK  171  A    between atoms: _437  and  _440
REMARK  172  A    between atoms: _440  and  _441
REMARK  173  A    between atoms: _451  and  _453
REMARK  174  A    between atoms: _453  and  _454
REMARK  175  A    between atoms: _453  and  _456
REMARK  176  A    between atoms: _456  and  _457
REMARK  177  A    between atoms: _457  and  _458
REMARK  178  A    between atoms: _460  and  _462
REMARK  179  A    between atoms: _462  and  _463
REMARK  180  A    between atoms: _462  and  _465
REMARK  181  A    between atoms: _465  and  _466
REMARK  182  A    between atoms: _466  and  _467
REMARK                            x       y       z     vdW  Elec       q    Type
REMARK                         _______ _______ _______ _____ _____    ______ ____
ROOT
ATOM      1  CA  LYS A   2       1.137  -3.191  12.260  0.00  0.00    +0.149 C 
ENDROOT
BRANCH   1   3
ATOM      2  C   LYS A   1      -0.866  -1.959  11.538  0.00  0.00    +0.238 C 
ATOM      3  N   LYS A   2       0.090  -2.201  12.423  0.00  0.00    -0.297 N 
ATOM      4  H   LYS A   2       0.089  -1.640  13.299  0.00  0.00    +0.150 HD
ATOM      5  O   LYS A   1      -1.028  -2.574  10.499  0.00  0.00    -0.274 OA
BRANCH   2   6
ATOM      6  CA  LYS A   1      -1.809  -0.885  11.911  0.00  0.00    +0.145 C 
BRANCH   6   7
ATOM      7  N   LYS A   1      -2.155  -0.198  10.653  0.00  0.00    -0.238 NA
ATOM      8  H   LYS A   1      -3.126  -0.235  10.282  0.00  0.00    +0.142 HD
ENDBRANCH   6   7
BRANCH   6   9
ATOM      9  CB  LYS A   1      -3.030  -1.470  12.677  0.00  0.00    +0.026 C 
BRANCH   9  10
ATOM     10  CG  LYS A   1      -4.136  -0.489  13.000  0.00  0.00    -0.000 C 
BRANCH  10  11
ATOM     11  CD  LYS A   1      -3.688   0.672  13.938  0.00  0.00    -0.024 C 
BRANCH  11  12
ATOM     12  CE  LYS A   1      -3.111   0.162  15.288  0.00  0.00    -0.086 C 
BRANCH  12  13
ATOM     13  NZ  LYS A   1      -2.864   1.337  16.234  0.00  0.00    +0.380 N 
ATOM     14  HZ1 LYS A   1      -2.478   0.982  17.132  0.00  0.00    -0.089 HD
ATOM     15  HZ2 LYS A   1      -3.761   1.832  16.412  0.00  0.00    -0.089 HD
ATOM     16  HZ3 LYS A   1      -2.185   1.994  15.799  0.00  0.00    -0.089 HD
ENDBRANCH  12  13
ENDBRANCH  11  12
ENDBRANCH  10  11
ENDBRANCH   9  10
ENDBRANCH   6   9
ENDBRANCH   2   6
ENDBRANCH   1   3
BRANCH   1  17
ATOM     17  C   LYS A   2       0.589  -4.619  12.448  0.00  0.00    +0.241 C 
ATOM     18  N   ALA A   3      -0.216  -4.791  13.493  0.00  0.00    -0.297 N 
ATOM     19  H   ALA A   3      -0.415  -3.998  14.136  0.00  0.00    +0.150 HD
ATOM     20  O   LYS A   2       0.937  -5.574  11.685  0.00  0.00    -0.273 OA
BRANCH  18  21
ATOM     21  CA  ALA A   3      -0.808  -6.074  13.729  0.00  0.00    +0.149 C 
ATOM     22  CB  ALA A   3      -0.569  -6.530  15.159  0.00  0.00    +0.031 C 
BRANCH  21  23
ATOM     23  C   ALA A   3      -2.335  -6.068  13.364  0.00  0.00    +0.241 C 
ATOM     24  O   ALA A   3      -3.085  -5.129  13.691  0.00  0.00    -0.273 OA
ATOM     25  N   TRP A   4      -2.776  -7.121  12.676  0.00  0.00    -0.298 N 
ATOM     26  H   TRP A   4      -2.129  -7.916  12.501  0.00  0.00    +0.150 HD
BRANCH  25  27
ATOM     27  CA  TRP A   4      -4.155  -7.192  12.155  0.00  0.00    +0.141 C 
BRANCH  27  28
ATOM     28  C   TRP A   4      -4.645  -5.952  11.444  0.00  0.00    +0.227 C 
ATOM     29  O   TRP A   4      -5.723  -5.490  11.697  0.00  0.00    -0.286 OA
ENDBRANCH  27  28
BRANCH  27  30
ATOM     30  CB  TRP A   4      -5.164  -7.668  13.232  0.00  0.00    +0.056 C 
BRANCH  30  31
ATOM     31  CG  TRP A   4      -5.001  -9.076  13.607  0.00  0.00    -0.002 A 
ATOM     32  CD2 TRP A   4      -4.008  -9.627  14.528  0.00  0.00    +0.013 A 
ATOM     33  CE3 TRP A   4      -3.018  -9.055  15.347  0.00  0.00    +0.001 A 
ATOM     34  CZ3 TRP A   4      -2.229  -9.914  16.144  0.00  0.00    +0.000 A 
ATOM     35  CH2 TRP A   4      -2.435 -11.297  16.143  0.00  0.00    +0.001 A 
ATOM     36  CZ2 TRP A   4      -3.401 -11.892  15.345  0.00  0.00    +0.017 A 
ATOM     37  CE2 TRP A   4      -4.181 -11.047  14.542  0.00  0.00    +0.056 A 
ATOM     38  NE1 TRP A   4      -5.168 -11.343  13.645  0.00  0.00    -0.352 N 
ATOM     39  HE1 TRP A   4      -5.501 -12.300  13.411  0.00  0.00    +0.166 HD
ATOM     40  CD1 TRP A   4      -5.662 -10.151  13.089  0.00  0.00    +0.068 A 
ENDBRANCH  30  31
ENDBRANCH  27  30
ENDBRANCH  25  27
ENDBRANCH  21  23
ENDBRANCH  18  21
ENDBRANCH   1  17
BRANCH   1  41
ATOM     41  CB  LYS A   2       2.229  -2.912  13.331  0.00  0.00    +0.029 C 
BRANCH  41  42
ATOM     42  CG  LYS A   2       3.577  -3.628  13.043  0.00  0.00    +0.000 C 
BRANCH  42  43
ATOM     43  CD  LYS A   2       4.381  -4.069  14.294  0.00  0.00    -0.024 C 
BRANCH  43  44
ATOM     44  CE  LYS A   2       5.747  -4.569  13.827  0.00  0.00    -0.086 C 
BRANCH  44  45
ATOM     45  NZ  LYS A   2       6.820  -4.354  14.882  0.00  0.00    +0.380 N 
ATOM     46  HZ1 LYS A   2       6.562  -4.870  15.747  0.00  0.00    -0.089 HD
ATOM     47  HZ2 LYS A   2       6.899  -3.339  15.093  0.00  0.00    -0.089 HD
ATOM     48  HZ3 LYS A   2       7.731  -4.707  14.525  0.00  0.00    -0.089 HD
ENDBRANCH  44  45
ENDBRANCH  43  44
ENDBRANCH  42  43
ENDBRANCH  41  42
ENDBRANCH   1  41
TORSDOF 20
REMARK  Name = ../refined-set-2016/2vnp/2vnp_pocket.pdb
REMARK  182 active torsions:
REMARK  status: ('A' for Active; 'I' for Inactive)
REMARK    1  A    between atoms: _1  and  _5
REMARK    2  A    between atoms: _5  and  _6
REMARK    3  A    between atoms: _5  and  _8
REMARK    4  A    between atoms: _8  and  _9
REMARK    5  A    between atoms: _9  and  _10
REMARK    6  A    between atoms: _13  and  _15
REMARK    7  A    between atoms: _15  and  _16
REMARK    8  A    between atoms: _15  and  _18
REMARK    9  A    between atoms: _18  and  _19
REMARK   10  A    between atoms: _24  and  _26
REMARK   11  A    between atoms: _26  and  _27
REMARK   12  A    between atoms: _26  and  _29
REMARK   13  A    between atoms: _32  and  _34
REMARK   14  A    between atoms: _34  and  _35
REMARK   15  A    between atoms: _34  and  _37
REMARK   16  A    between atoms: _37  and  _38
REMARK   17  A    between atoms: _38  and  _39
REMARK   18  A    between atoms: _39  and  _40
REMARK   19  A    between atoms: _40  and  _41
REMARK   20  A    between atoms: _45  and  _47
REMARK   21  A    between atoms: _47  and  _48
REMARK   22  A    between atoms: _47  and  _50
REMARK   23  A    between atoms: _50  and  _51
REMARK   24  A    between atoms: _56  and  _57
REMARK   25  A    between atoms: _59  and  _61
REMARK   26  A    between atoms: _61  and  _62
REMARK   27  A    between atoms: _61  and  _64
REMARK   28  A    between atoms: _64  and  _65
REMARK   29  A    between atoms: _69  and  MN_472
REMARK   30  A    between atoms: _70  and  _72
REMARK   31  A    between atoms: _72  and  _73
REMARK   32  A    between atoms: _72  and  _75
REMARK   33  A    between atoms: _75  and  _76
REMARK   34  A    between atoms: _80  and  MN_472
REMARK   35  A    between atoms: _81  and  _83
REMARK   36  A    between atoms: _83  and  _84
REMARK   37  A    between atoms: _83  and  _86
REMARK   38  A    between atoms: _86  and  _87
REMARK   39  A    between atoms: _90  and  _92
REMARK   40  A    between atoms: _92  and  _93
REMARK   41  A    between atoms: _96  and  _98
REMARK   42  A    between atoms: _98  and  _99
REMARK   43  A    between atoms: _98  and  _101
REMARK   44  A    between atoms: _101  and  _102
REMARK   45  A    between atoms: _108  and  _110
REMARK   46  A    between atoms: _110  and  _111
REMARK   47  A    between atoms: _110  and  _113
REMARK   48  A    between atoms: _113  and  _114
REMARK   49  A    between atoms: _116  and  _118
REMARK   50  A    between atoms: _118  and  _119
REMARK   51  A    between atoms: _118  and  _121
REMARK   52  A    between atoms: _121  and  _122
REMARK   53  A    between atoms: _124  and  _126
REMARK   54  A    between atoms: _126  and  _127
REMARK   55  A    between atoms: _126  and  _129
REMARK   56  A    between atoms: _129  and  _130
REMARK   57  A    between atoms: _130  and  _131
REMARK   58  A    between atoms: _131  and  _132
REMARK   59  A    between atoms: _141  and  _143
REMARK   60  A    between atoms: _143  and  _144
REMARK   61  A    between atoms: _147  and  _149
REMARK   62  A    between atoms: _149  and  _150
REMARK   63  A    between atoms: _149  and  _152
REMARK   64  A    between atoms: _152  and  _153
REMARK   65  A    between atoms: _153  and  _154
REMARK   66  A    between atoms: _154  and  _155
REMARK   67  A    between atoms: _155  and  _156
REMARK   68  A    between atoms: _160  and  _162
REMARK   69  A    between atoms: _162  and  _163
REMARK   70  A    between atoms: _162  and  _165
REMARK   71  A    between atoms: _165  and  _166
REMARK   72  A    between atoms: _166  and  _167
REMARK   73  A    between atoms: _167  and  _168
REMARK   74  A    between atoms: _168  and  _169
REMARK   75  A    between atoms: _173  and  _175
REMARK   76  A    between atoms: _175  and  _176
REMARK   77  A    between atoms: _179  and  _181
REMARK   78  A    between atoms: _181  and  _182
REMARK   79  A    between atoms: _181  and  _184
REMARK   80  A    between atoms: _184  and  _185
REMARK   81  A    between atoms: _195  and  _197
REMARK   82  A    between atoms: _197  and  _198
REMARK   83  A    between atoms: _197  and  _200
REMARK   84  A    between atoms: _200  and  _201
REMARK   85  A    between atoms: _204  and  _206
REMARK   86  A    between atoms: _206  and  _207
REMARK   87  A    between atoms: _206  and  _209
REMARK   88  A    between atoms: _209  and  _210
REMARK   89  A    between atoms: _215  and  _217
REMARK   90  A    between atoms: _217  and  _218
REMARK   91  A    between atoms: _217  and  _220
REMARK   92  A    between atoms: _220  and  _221
REMARK   93  A    between atoms: _223  and  _225
REMARK   94  A    between atoms: _225  and  _226
REMARK   95  A    between atoms: _225  and  _228
REMARK   96  A    between atoms: _231  and  _233
REMARK   97  A    between atoms: _233  and  _234
REMARK   98  A    between atoms: _233  and  _236
REMARK   99  A    between atoms: _234  and  _235
REMARK  100  A    between atoms: _234  and  _238
REMARK  101  A    between atoms: _235  and  MG_473
REMARK  102  A    between atoms: _238  and  _240
REMARK  103  A    between atoms: _240  and  _241
REMARK  104  A    between atoms: _243  and  _245
REMARK  105  A    between atoms: _245  and  _246
REMARK  106  A    between atoms: _245  and  _248
REMARK  107  A    between atoms: _248  and  _249
REMARK  108  A    between atoms: _253  and  MN_472
REMARK  109  A    between atoms: _255  and  _256
REMARK  110  A    between atoms: _261  and  _263
REMARK  111  A    between atoms: _263  and  _264
REMARK  112  A    between atoms: _263  and  _266
REMARK  113  A    between atoms: _266  and  _267
REMARK  114  A    between atoms: _267  and  _268
REMARK  115  A    between atoms: _273  and  _275
REMARK  116  A    between atoms: _275  and  _276
REMARK  117  A    between atoms: _275  and  _278
REMARK  118  A    between atoms: _278  and  _279
REMARK  119  A    between atoms: _279  and  _280
REMARK  120  A    between atoms: _280  and  _281
REMARK  121  A    between atoms: _290  and  _292
REMARK  122  A    between atoms: _292  and  _293
REMARK  123  A    between atoms: _292  and  _295
REMARK  124  A    between atoms: _295  and  _296
REMARK  125  A    between atoms: _296  and  _297
REMARK  126  A    between atoms: _297  and  _298
REMARK  127  A    between atoms: _307  and  _309
REMARK  128  A    between atoms: _309  and  _310
REMARK  129  A    between atoms: _309  and  _312
REMARK  130  A    between atoms: _312  and  _313
REMARK  131  A    between atoms: _318  and  _319
REMARK  132  A    between atoms: _321  and  _323
REMARK  133  A    between atoms: _323  and  _324
REMARK  134  A    between atoms: _323  and  _326
REMARK  135  A    between atoms: _326  and  _327
REMARK  136  A    between atoms: _327  and  _328
REMARK  137  A    between atoms: _328  and  _330
REMARK  138  A    between atoms: _330  and  MG_473
REMARK  139  A    between atoms: _331  and  _333
REMARK  140  A    between atoms: _333  and  _334
REMARK  141  A    between atoms: _333  and  _336
REMARK  142  A    between atoms: _336  and  _337
REMARK  143  A    between atoms: _343  and  _345
REMARK  144  A    between atoms: _345  and  _346
REMARK  145  A    between atoms: _345  and  _348
REMARK  146  A    between atoms: _348  and  _349
REMARK  147  A    between atoms: _354  and  _355
REMARK  148  A    between atoms: _357  and  _359
REMARK  149  A    between atoms: _369  and  _372
REMARK  150  A    between atoms: _372  and  _373
REMARK  151  A    between atoms: _380  and  _381
REMARK  152  A    between atoms: _388  and  _390
REMARK  153  A    between atoms: _390  and  _391
REMARK  154  A    between atoms: _390  and  _393
REMARK  155  A    between atoms: _396  and  _398
REMARK  156  A    between atoms: _398  and  _399
REMARK  157  A    between atoms: _398  and  _401
REMARK  158  A    between atoms: _404  and  _405
REMARK  159  A    between atoms: _410  and  _412
REMARK  160  A    between atoms: _412  and  _413
REMARK  161  A    between atoms: _412  and  _415
REMARK  162  A    between atoms: _415  and  _416
REMARK  163  A    between atoms: _416  and  _417
REMARK  164  A    between atoms: _420  and  _422
REMARK  165  A    between atoms: _422  and  _423
REMARK  166  A    between atoms: _422  and  _425
REMARK  167  A    between atoms: _425  and  _426
REMARK  168  A    between atoms: _429  and  _430
REMARK  169  A    between atoms: _435  and  _437
REMARK  170  A    between atoms: _437  and  _438
REMARK  171  A    between atoms: _437  and  _440
REMARK  172  A    between atoms: _440  and  _441
REMARK  173  A    between atoms: _451  and  _453
REMARK  174  A    between atoms: _453  and  _454
REMARK  175  A    between atoms: _453  and  _456
REMARK  176  A    between atoms: _456  and  _457
REMARK  177  A    between atoms: _457  and  _458
REMARK  178  A    between atoms: _460  and  _462
REMARK  179  A    between atoms: _462  and  _463
REMARK  180  A    between atoms: _462  and  _465
REMARK  181  A    between atoms: _465  and  _466
REMARK  182  A    between atoms: _466  and  _467
REMARK                            x       y       z     vdW  Elec       q    Type
REMARK                         _______ _______ _______ _____ _____    ______ ____
ROOT
ATOM      1  C   ARG A   1      -7.248   7.348  25.291  0.00  0.00    +0.238 C 
ATOM      2  N   ARG A   2      -7.357   6.020  25.096  0.00  0.00    -0.298 N 
ATOM      3  H   ARG A   2      -7.371   5.374  25.911  0.00  0.00    +0.150 HD
ATOM      4  O   ARG A   1      -7.278   8.183  24.369  0.00  0.00    -0.274 OA
ENDROOT
BRANCH   1   5
ATOM      5  CA  ARG A   1      -7.116   7.831  26.733  0.00  0.00    +0.145 C 
BRANCH   5   6
ATOM      6  N   ARG A   1      -8.082   7.116  27.577  0.00  0.00    -0.238 NA
ATOM      7  H   ARG A   1      -7.724   6.493  28.329  0.00  0.00    +0.142 HD
ENDBRANCH   5   6
BRANCH   5   8
ATOM      8  CB  ARG A   1      -5.678   7.642  27.276  0.00  0.00    +0.030 C 
BRANCH   8   9
ATOM      9  CG  ARG A   1      -4.512   7.944  26.285  0.00  0.00    +0.045 C 
BRANCH   9  10
ATOM     10  CD  ARG A   1      -3.104   7.790  26.950  0.00  0.00    +0.174 C 
BRANCH  10  11
ATOM     11  NE  ARG A   1      -2.899   6.372  27.365  0.00  0.00    -0.265 N 
ATOM     12  HE  ARG A   1      -3.121   6.118  28.349  0.00  0.00    +0.259 HD
ATOM     13  CZ  ARG A   1      -2.452   5.411  26.564  0.00  0.00    +0.342 C 
ATOM     14  NH2 ARG A   1      -2.312   4.183  27.028  0.00  0.00    -0.292 N 
ATOM     15 HH21 ARG A   1      -2.551   3.971  28.018  0.00  0.00    +0.255 HD
ATOM     16 HH22 ARG A   1      -1.962   3.428  26.404  0.00  0.00    +0.255 HD
ATOM     17  NH1 ARG A   1      -2.123   5.679  25.305  0.00  0.00    -0.292 N 
ATOM     18 HH11 ARG A   1      -2.214   6.648  24.939  0.00  0.00    +0.255 HD
ATOM     19 HH12 ARG A   1      -1.774   4.920  24.686  0.00  0.00    +0.255 HD
ENDBRANCH  10  11
ENDBRANCH   9  10
ENDBRANCH   8   9
ENDBRANCH   5   8
ENDBRANCH   1   5
BRANCH   2  20
ATOM     20  CA  ARG A   2      -7.457   5.477  23.712  0.00  0.00    +0.137 C 
BRANCH  20  21
ATOM     21  C   ARG A   2      -8.802   5.804  23.011  0.00  0.00    +0.227 C 
ATOM     22  O   ARG A   2      -8.813   6.019  21.805  0.00  0.00    -0.286 OA
ENDBRANCH  20  21
BRANCH  20  23
ATOM     23  CB  ARG A   2      -7.087   3.970  23.596  0.00  0.00    +0.031 C 
BRANCH  23  24
ATOM     24  CG  ARG A   2      -5.598   3.627  23.867  0.00  0.00    +0.045 C 
BRANCH  24  25
ATOM     25  CD  ARG A   2      -4.625   4.543  23.066  0.00  0.00    +0.174 C 
BRANCH  25  26
ATOM     26  NE  ARG A   2      -4.466   4.046  21.687  0.00  0.00    -0.265 N 
ATOM     27  HE  ARG A   2      -5.200   3.409  21.317  0.00  0.00    +0.259 HD
ATOM     28  CZ  ARG A   2      -3.447   4.355  20.877  0.00  0.00    +0.342 C 
ATOM     29  NH2 ARG A   2      -2.518   5.148  21.305  0.00  0.00    -0.292 N 
ATOM     30 HH21 ARG A   2      -2.569   5.537  22.268  0.00  0.00    +0.255 HD
ATOM     31 HH22 ARG A   2      -1.720   5.396  20.686  0.00  0.00    +0.255 HD
ATOM     32  NH1 ARG A   2      -3.370   3.885  19.654  0.00  0.00    -0.292 N 
ATOM     33 HH11 ARG A   2      -4.113   3.255  19.291  0.00  0.00    +0.255 HD
ATOM     34 HH12 ARG A   2      -2.566   4.143  19.047  0.00  0.00    +0.255 HD
ENDBRANCH  25  26
ENDBRANCH  24  25
ENDBRANCH  23  24
ENDBRANCH  20  23
ENDBRANCH   2  20
TORSDOF 12
REMARK  Name = ../refined-set-2016/2vnp/2vnp_pocket.pdb
REMARK  182 active torsions:
REMARK  status: ('A' for Active; 'I' for Inactive)
REMARK    1  A    between atoms: _1  and  _5
REMARK    2  A    between atoms: _5  and  _6
REMARK    3  A    between atoms: _5  and  _8
REMARK    4  A    between atoms: _8  and  _9
REMARK    5  A    between atoms: _9  and  _10
REMARK    6  A    between atoms: _13  and  _15
REMARK    7  A    between atoms: _15  and  _16
REMARK    8  A    between atoms: _15  and  _18
REMARK    9  A    between atoms: _18  and  _19
REMARK   10  A    between atoms: _24  and  _26
REMARK   11  A    between atoms: _26  and  _27
REMARK   12  A    between atoms: _26  and  _29
REMARK   13  A    between atoms: _32  and  _34
REMARK   14  A    between atoms: _34  and  _35
REMARK   15  A    between atoms: _34  and  _37
REMARK   16  A    between atoms: _37  and  _38
REMARK   17  A    between atoms: _38  and  _39
REMARK   18  A    between atoms: _39  and  _40
REMARK   19  A    between atoms: _40  and  _41
REMARK   20  A    between atoms: _45  and  _47
REMARK   21  A    between atoms: _47  and  _48
REMARK   22  A    between atoms: _47  and  _50
REMARK   23  A    between atoms: _50  and  _51
REMARK   24  A    between atoms: _56  and  _57
REMARK   25  A    between atoms: _59  and  _61
REMARK   26  A    between atoms: _61  and  _62
REMARK   27  A    between atoms: _61  and  _64
REMARK   28  A    between atoms: _64  and  _65
REMARK   29  A    between atoms: _69  and  MN_472
REMARK   30  A    between atoms: _70  and  _72
REMARK   31  A    between atoms: _72  and  _73
REMARK   32  A    between atoms: _72  and  _75
REMARK   33  A    between atoms: _75  and  _76
REMARK   34  A    between atoms: _80  and  MN_472
REMARK   35  A    between atoms: _81  and  _83
REMARK   36  A    between atoms: _83  and  _84
REMARK   37  A    between atoms: _83  and  _86
REMARK   38  A    between atoms: _86  and  _87
REMARK   39  A    between atoms: _90  and  _92
REMARK   40  A    between atoms: _92  and  _93
REMARK   41  A    between atoms: _96  and  _98
REMARK   42  A    between atoms: _98  and  _99
REMARK   43  A    between atoms: _98  and  _101
REMARK   44  A    between atoms: _101  and  _102
REMARK   45  A    between atoms: _108  and  _110
REMARK   46  A    between atoms: _110  and  _111
REMARK   47  A    between atoms: _110  and  _113
REMARK   48  A    between atoms: _113  and  _114
REMARK   49  A    between atoms: _116  and  _118
REMARK   50  A    between atoms: _118  and  _119
REMARK   51  A    between atoms: _118  and  _121
REMARK   52  A    between atoms: _121  and  _122
REMARK   53  A    between atoms: _124  and  _126
REMARK   54  A    between atoms: _126  and  _127
REMARK   55  A    between atoms: _126  and  _129
REMARK   56  A    between atoms: _129  and  _130
REMARK   57  A    between atoms: _130  and  _131
REMARK   58  A    between atoms: _131  and  _132
REMARK   59  A    between atoms: _141  and  _143
REMARK   60  A    between atoms: _143  and  _144
REMARK   61  A    between atoms: _147  and  _149
REMARK   62  A    between atoms: _149  and  _150
REMARK   63  A    between atoms: _149  and  _152
REMARK   64  A    between atoms: _152  and  _153
REMARK   65  A    between atoms: _153  and  _154
REMARK   66  A    between atoms: _154  and  _155
REMARK   67  A    between atoms: _155  and  _156
REMARK   68  A    between atoms: _160  and  _162
REMARK   69  A    between atoms: _162  and  _163
REMARK   70  A    between atoms: _162  and  _165
REMARK   71  A    between atoms: _165  and  _166
REMARK   72  A    between atoms: _166  and  _167
REMARK   73  A    between atoms: _167  and  _168
REMARK   74  A    between atoms: _168  and  _169
REMARK   75  A    between atoms: _173  and  _175
REMARK   76  A    between atoms: _175  and  _176
REMARK   77  A    between atoms: _179  and  _181
REMARK   78  A    between atoms: _181  and  _182
REMARK   79  A    between atoms: _181  and  _184
REMARK   80  A    between atoms: _184  and  _185
REMARK   81  A    between atoms: _195  and  _197
REMARK   82  A    between atoms: _197  and  _198
REMARK   83  A    between atoms: _197  and  _200
REMARK   84  A    between atoms: _200  and  _201
REMARK   85  A    between atoms: _204  and  _206
REMARK   86  A    between atoms: _206  and  _207
REMARK   87  A    between atoms: _206  and  _209
REMARK   88  A    between atoms: _209  and  _210
REMARK   89  A    between atoms: _215  and  _217
REMARK   90  A    between atoms: _217  and  _218
REMARK   91  A    between atoms: _217  and  _220
REMARK   92  A    between atoms: _220  and  _221
REMARK   93  A    between atoms: _223  and  _225
REMARK   94  A    between atoms: _225  and  _226
REMARK   95  A    between atoms: _225  and  _228
REMARK   96  A    between atoms: _231  and  _233
REMARK   97  A    between atoms: _233  and  _234
REMARK   98  A    between atoms: _233  and  _236
REMARK   99  A    between atoms: _234  and  _235
REMARK  100  A    between atoms: _234  and  _238
REMARK  101  A    between atoms: _235  and  MG_473
REMARK  102  A    between atoms: _238  and  _240
REMARK  103  A    between atoms: _240  and  _241
REMARK  104  A    between atoms: _243  and  _245
REMARK  105  A    between atoms: _245  and  _246
REMARK  106  A    between atoms: _245  and  _248
REMARK  107  A    between atoms: _248  and  _249
REMARK  108  A    between atoms: _253  and  MN_472
REMARK  109  A    between atoms: _255  and  _256
REMARK  110  A    between atoms: _261  and  _263
REMARK  111  A    between atoms: _263  and  _264
REMARK  112  A    between atoms: _263  and  _266
REMARK  113  A    between atoms: _266  and  _267
REMARK  114  A    between atoms: _267  and  _268
REMARK  115  A    between atoms: _273  and  _275
REMARK  116  A    between atoms: _275  and  _276
REMARK  117  A    between atoms: _275  and  _278
REMARK  118  A    between atoms: _278  and  _279
REMARK  119  A    between atoms: _279  and  _280
REMARK  120  A    between atoms: _280  and  _281
REMARK  121  A    between atoms: _290  and  _292
REMARK  122  A    between atoms: _292  and  _293
REMARK  123  A    between atoms: _292  and  _295
REMARK  124  A    between atoms: _295  and  _296
REMARK  125  A    between atoms: _296  and  _297
REMARK  126  A    between atoms: _297  and  _298
REMARK  127  A    between atoms: _307  and  _309
REMARK  128  A    between atoms: _309  and  _310
REMARK  129  A    between atoms: _309  and  _312
REMARK  130  A    between atoms: _312  and  _313
REMARK  131  A    between atoms: _318  and  _319
REMARK  132  A    between atoms: _321  and  _323
REMARK  133  A    between atoms: _323  and  _324
REMARK  134  A    between atoms: _323  and  _326
REMARK  135  A    between atoms: _326  and  _327
REMARK  136  A    between atoms: _327  and  _328
REMARK  137  A    between atoms: _328  and  _330
REMARK  138  A    between atoms: _330  and  MG_473
REMARK  139  A    between atoms: _331  and  _333
REMARK  140  A    between atoms: _333  and  _334
REMARK  141  A    between atoms: _333  and  _336
REMARK  142  A    between atoms: _336  and  _337
REMARK  143  A    between atoms: _343  and  _345
REMARK  144  A    between atoms: _345  and  _346
REMARK  145  A    between atoms: _345  and  _348
REMARK  146  A    between atoms: _348  and  _349
REMARK  147  A    between atoms: _354  and  _355
REMARK  148  A    between atoms: _357  and  _359
REMARK  149  A    between atoms: _369  and  _372
REMARK  150  A    between atoms: _372  and  _373
REMARK  151  A    between atoms: _380  and  _381
REMARK  152  A    between atoms: _388  and  _390
REMARK  153  A    between atoms: _390  and  _391
REMARK  154  A    between atoms: _390  and  _393
REMARK  155  A    between atoms: _396  and  _398
REMARK  156  A    between atoms: _398  and  _399
REMARK  157  A    between atoms: _398  and  _401
REMARK  158  A    between atoms: _404  and  _405
REMARK  159  A    between atoms: _410  and  _412
REMARK  160  A    between atoms: _412  and  _413
REMARK  161  A    between atoms: _412  and  _415
REMARK  162  A    between atoms: _415  and  _416
REMARK  163  A    between atoms: _416  and  _417
REMARK  164  A    between atoms: _420  and  _422
REMARK  165  A    between atoms: _422  and  _423
REMARK  166  A    between atoms: _422  and  _425
REMARK  167  A    between atoms: _425  and  _426
REMARK  168  A    between atoms: _429  and  _430
REMARK  169  A    between atoms: _435  and  _437
REMARK  170  A    between atoms: _437  and  _438
REMARK  171  A    between atoms: _437  and  _440
REMARK  172  A    between atoms: _440  and  _441
REMARK  173  A    between atoms: _451  and  _453
REMARK  174  A    between atoms: _453  and  _454
REMARK  175  A    between atoms: _453  and  _456
REMARK  176  A    between atoms: _456  and  _457
REMARK  177  A    between atoms: _457  and  _458
REMARK  178  A    between atoms: _460  and  _462
REMARK  179  A    between atoms: _462  and  _463
REMARK  180  A    between atoms: _462  and  _465
REMARK  181  A    between atoms: _465  and  _466
REMARK  182  A    between atoms: _466  and  _467
REMARK                            x       y       z     vdW  Elec       q    Type
REMARK                         _______ _______ _______ _____ _____    ______ ____
ROOT
ATOM      1  CB  PHE A   1      -9.173 -11.951  28.699  0.00  0.00    +0.051 C 
ENDROOT
BRANCH   1   2
ATOM      2  CG  PHE A   1      -8.977 -12.350  27.238  0.00  0.00    -0.020 A 
ATOM      3  CD2 PHE A   1      -9.265 -13.666  26.788  0.00  0.00    -0.004 A 
ATOM      4  CE2 PHE A   1      -9.074 -14.077  25.450  0.00  0.00    -0.000 A 
ATOM      5  CZ  PHE A   1      -8.603 -13.112  24.476  0.00  0.00    -0.000 A 
ATOM      6  CE1 PHE A   1      -8.334 -11.797  24.926  0.00  0.00    -0.000 A 
ATOM      7  CD1 PHE A   1      -8.540 -11.418  26.312  0.00  0.00    -0.004 A 
ENDBRANCH   1   2
BRANCH   1   8
ATOM      8  CA  PHE A   1      -8.306 -12.749  29.704  0.00  0.00    +0.137 C 
BRANCH   8   9
ATOM      9  N   PHE A   1      -8.549 -12.373  31.111  0.00  0.00    -0.239 NA
ATOM     10  H   PHE A   1      -9.122 -11.530  31.316  0.00  0.00    +0.142 HD
ENDBRANCH   8   9
BRANCH   8  11
ATOM     11  C   PHE A   1      -6.829 -12.616  29.360  0.00  0.00    +0.224 C 
ATOM     12  O   PHE A   1      -6.197 -11.577  29.634  0.00  0.00    -0.287 OA
ENDBRANCH   8  11
ENDBRANCH   1   8
TORSDOF 4
REMARK  Name = ../refined-set-2016/2vnp/2vnp_pocket.pdb
REMARK  182 active torsions:
REMARK  status: ('A' for Active; 'I' for Inactive)
REMARK    1  A    between atoms: _1  and  _5
REMARK    2  A    between atoms: _5  and  _6
REMARK    3  A    between atoms: _5  and  _8
REMARK    4  A    between atoms: _8  and  _9
REMARK    5  A    between atoms: _9  and  _10
REMARK    6  A    between atoms: _13  and  _15
REMARK    7  A    between atoms: _15  and  _16
REMARK    8  A    between atoms: _15  and  _18
REMARK    9  A    between atoms: _18  and  _19
REMARK   10  A    between atoms: _24  and  _26
REMARK   11  A    between atoms: _26  and  _27
REMARK   12  A    between atoms: _26  and  _29
REMARK   13  A    between atoms: _32  and  _34
REMARK   14  A    between atoms: _34  and  _35
REMARK   15  A    between atoms: _34  and  _37
REMARK   16  A    between atoms: _37  and  _38
REMARK   17  A    between atoms: _38  and  _39
REMARK   18  A    between atoms: _39  and  _40
REMARK   19  A    between atoms: _40  and  _41
REMARK   20  A    between atoms: _45  and  _47
REMARK   21  A    between atoms: _47  and  _48
REMARK   22  A    between atoms: _47  and  _50
REMARK   23  A    between atoms: _50  and  _51
REMARK   24  A    between atoms: _56  and  _57
REMARK   25  A    between atoms: _59  and  _61
REMARK   26  A    between atoms: _61  and  _62
REMARK   27  A    between atoms: _61  and  _64
REMARK   28  A    between atoms: _64  and  _65
REMARK   29  A    between atoms: _69  and  MN_472
REMARK   30  A    between atoms: _70  and  _72
REMARK   31  A    between atoms: _72  and  _73
REMARK   32  A    between atoms: _72  and  _75
REMARK   33  A    between atoms: _75  and  _76
REMARK   34  A    between atoms: _80  and  MN_472
REMARK   35  A    between atoms: _81  and  _83
REMARK   36  A    between atoms: _83  and  _84
REMARK   37  A    between atoms: _83  and  _86
REMARK   38  A    between atoms: _86  and  _87
REMARK   39  A    between atoms: _90  and  _92
REMARK   40  A    between atoms: _92  and  _93
REMARK   41  A    between atoms: _96  and  _98
REMARK   42  A    between atoms: _98  and  _99
REMARK   43  A    between atoms: _98  and  _101
REMARK   44  A    between atoms: _101  and  _102
REMARK   45  A    between atoms: _108  and  _110
REMARK   46  A    between atoms: _110  and  _111
REMARK   47  A    between atoms: _110  and  _113
REMARK   48  A    between atoms: _113  and  _114
REMARK   49  A    between atoms: _116  and  _118
REMARK   50  A    between atoms: _118  and  _119
REMARK   51  A    between atoms: _118  and  _121
REMARK   52  A    between atoms: _121  and  _122
REMARK   53  A    between atoms: _124  and  _126
REMARK   54  A    between atoms: _126  and  _127
REMARK   55  A    between atoms: _126  and  _129
REMARK   56  A    between atoms: _129  and  _130
REMARK   57  A    between atoms: _130  and  _131
REMARK   58  A    between atoms: _131  and  _132
REMARK   59  A    between atoms: _141  and  _143
REMARK   60  A    between atoms: _143  and  _144
REMARK   61  A    between atoms: _147  and  _149
REMARK   62  A    between atoms: _149  and  _150
REMARK   63  A    between atoms: _149  and  _152
REMARK   64  A    between atoms: _152  and  _153
REMARK   65  A    between atoms: _153  and  _154
REMARK   66  A    between atoms: _154  and  _155
REMARK   67  A    between atoms: _155  and  _156
REMARK   68  A    between atoms: _160  and  _162
REMARK   69  A    between atoms: _162  and  _163
REMARK   70  A    between atoms: _162  and  _165
REMARK   71  A    between atoms: _165  and  _166
REMARK   72  A    between atoms: _166  and  _167
REMARK   73  A    between atoms: _167  and  _168
REMARK   74  A    between atoms: _168  and  _169
REMARK   75  A    between atoms: _173  and  _175
REMARK   76  A    between atoms: _175  and  _176
REMARK   77  A    between atoms: _179  and  _181
REMARK   78  A    between atoms: _181  and  _182
REMARK   79  A    between atoms: _181  and  _184
REMARK   80  A    between atoms: _184  and  _185
REMARK   81  A    between atoms: _195  and  _197
REMARK   82  A    between atoms: _197  and  _198
REMARK   83  A    between atoms: _197  and  _200
REMARK   84  A    between atoms: _200  and  _201
REMARK   85  A    between atoms: _204  and  _206
REMARK   86  A    between atoms: _206  and  _207
REMARK   87  A    between atoms: _206  and  _209
REMARK   88  A    between atoms: _209  and  _210
REMARK   89  A    between atoms: _215  and  _217
REMARK   90  A    between atoms: _217  and  _218
REMARK   91  A    between atoms: _217  and  _220
REMARK   92  A    between atoms: _220  and  _221
REMARK   93  A    between atoms: _223  and  _225
REMARK   94  A    between atoms: _225  and  _226
REMARK   95  A    between atoms: _225  and  _228
REMARK   96  A    between atoms: _231  and  _233
REMARK   97  A    between atoms: _233  and  _234
REMARK   98  A    between atoms: _233  and  _236
REMARK   99  A    between atoms: _234  and  _235
REMARK  100  A    between atoms: _234  and  _238
REMARK  101  A    between atoms: _235  and  MG_473
REMARK  102  A    between atoms: _238  and  _240
REMARK  103  A    between atoms: _240  and  _241
REMARK  104  A    between atoms: _243  and  _245
REMARK  105  A    between atoms: _245  and  _246
REMARK  106  A    between atoms: _245  and  _248
REMARK  107  A    between atoms: _248  and  _249
REMARK  108  A    between atoms: _253  and  MN_472
REMARK  109  A    between atoms: _255  and  _256
REMARK  110  A    between atoms: _261  and  _263
REMARK  111  A    between atoms: _263  and  _264
REMARK  112  A    between atoms: _263  and  _266
REMARK  113  A    between atoms: _266  and  _267
REMARK  114  A    between atoms: _267  and  _268
REMARK  115  A    between atoms: _273  and  _275
REMARK  116  A    between atoms: _275  and  _276
REMARK  117  A    between atoms: _275  and  _278
REMARK  118  A    between atoms: _278  and  _279
REMARK  119  A    between atoms: _279  and  _280
REMARK  120  A    between atoms: _280  and  _281
REMARK  121  A    between atoms: _290  and  _292
REMARK  122  A    between atoms: _292  and  _293
REMARK  123  A    between atoms: _292  and  _295
REMARK  124  A    between atoms: _295  and  _296
REMARK  125  A    between atoms: _296  and  _297
REMARK  126  A    between atoms: _297  and  _298
REMARK  127  A    between atoms: _307  and  _309
REMARK  128  A    between atoms: _309  and  _310
REMARK  129  A    between atoms: _309  and  _312
REMARK  130  A    between atoms: _312  and  _313
REMARK  131  A    between atoms: _318  and  _319
REMARK  132  A    between atoms: _321  and  _323
REMARK  133  A    between atoms: _323  and  _324
REMARK  134  A    between atoms: _323  and  _326
REMARK  135  A    between atoms: _326  and  _327
REMARK  136  A    between atoms: _327  and  _328
REMARK  137  A    between atoms: _328  and  _330
REMARK  138  A    between atoms: _330  and  MG_473
REMARK  139  A    between atoms: _331  and  _333
REMARK  140  A    between atoms: _333  and  _334
REMARK  141  A    between atoms: _333  and  _336
REMARK  142  A    between atoms: _336  and  _337
REMARK  143  A    between atoms: _343  and  _345
REMARK  144  A    between atoms: _345  and  _346
REMARK  145  A    between atoms: _345  and  _348
REMARK  146  A    between atoms: _348  and  _349
REMARK  147  A    between atoms: _354  and  _355
REMARK  148  A    between atoms: _357  and  _359
REMARK  149  A    between atoms: _369  and  _372
REMARK  150  A    between atoms: _372  and  _373
REMARK  151  A    between atoms: _380  and  _381
REMARK  152  A    between atoms: _388  and  _390
REMARK  153  A    between atoms: _390  and  _391
REMARK  154  A    between atoms: _390  and  _393
REMARK  155  A    between atoms: _396  and  _398
REMARK  156  A    between atoms: _398  and  _399
REMARK  157  A    between atoms: _398  and  _401
REMARK  158  A    between atoms: _404  and  _405
REMARK  159  A    between atoms: _410  and  _412
REMARK  160  A    between atoms: _412  and  _413
REMARK  161  A    between atoms: _412  and  _415
REMARK  162  A    between atoms: _415  and  _416
REMARK  163  A    between atoms: _416  and  _417
REMARK  164  A    between atoms: _420  and  _422
REMARK  165  A    between atoms: _422  and  _423
REMARK  166  A    between atoms: _422  and  _425
REMARK  167  A    between atoms: _425  and  _426
REMARK  168  A    between atoms: _429  and  _430
REMARK  169  A    between atoms: _435  and  _437
REMARK  170  A    between atoms: _437  and  _438
REMARK  171  A    between atoms: _437  and  _440
REMARK  172  A    between atoms: _440  and  _441
REMARK  173  A    between atoms: _451  and  _453
REMARK  174  A    between atoms: _453  and  _454
REMARK  175  A    between atoms: _453  and  _456
REMARK  176  A    between atoms: _456  and  _457
REMARK  177  A    between atoms: _457  and  _458
REMARK  178  A    between atoms: _460  and  _462
REMARK  179  A    between atoms: _462  and  _463
REMARK  180  A    between atoms: _462  and  _465
REMARK  181  A    between atoms: _465  and  _466
REMARK  182  A    between atoms: _466  and  _467
REMARK                            x       y       z     vdW  Elec       q    Type
REMARK                         _______ _______ _______ _____ _____    ______ ____
ROOT
ATOM      1  CG  TYR A   1      -5.126 -13.172  23.185  0.00  0.00    -0.020 A 
ATOM      2  CD2 TYR A   1      -5.165 -11.971  23.898  0.00  0.00    -0.001 A 
ATOM      3  CE2 TYR A   1      -4.865 -10.799  23.329  0.00  0.00    +0.036 A 
ATOM      4  CZ  TYR A   1      -4.481 -10.741  22.008  0.00  0.00    +0.134 A 
ATOM      5  CE1 TYR A   1      -4.391 -11.917  21.247  0.00  0.00    +0.036 A 
ATOM      6  CD1 TYR A   1      -4.726 -13.135  21.847  0.00  0.00    -0.001 A 
ENDROOT
BRANCH   4   7
ATOM      7  OH  TYR A   1      -4.131  -9.490  21.529  0.00  0.00    -0.506 OA
ATOM      8  HH  TYR A   1      -3.367  -9.139  22.052  0.00  0.00    +0.292 HD
ENDBRANCH   4   7
BRANCH   1   9
ATOM      9  CB  TYR A   1      -5.459 -14.471  23.877  0.00  0.00    +0.051 C 
BRANCH   9  10
ATOM     10  CA  TYR A   1      -4.299 -14.971  24.763  0.00  0.00    +0.137 C 
BRANCH  10  11
ATOM     11  N   TYR A   1      -4.283 -14.214  26.032  0.00  0.00    -0.239 NA
ATOM     12  H   TYR A   1      -3.695 -13.358  26.099  0.00  0.00    +0.142 HD
ENDBRANCH  10  11
BRANCH  10  13
ATOM     13  C   TYR A   1      -2.952 -14.731  24.058  0.00  0.00    +0.224 C 
ATOM     14  O   TYR A   1      -2.188 -13.779  24.395  0.00  0.00    -0.287 OA
ENDBRANCH  10  13
ENDBRANCH   9  10
ENDBRANCH   1   9
TORSDOF 5
REMARK  Name = ../refined-set-2016/2vnp/2vnp_pocket.pdb
REMARK  182 active torsions:
REMARK  status: ('A' for Active; 'I' for Inactive)
REMARK    1  A    between atoms: _1  and  _5
REMARK    2  A    between atoms: _5  and  _6
REMARK    3  A    between atoms: _5  and  _8
REMARK    4  A    between atoms: _8  and  _9
REMARK    5  A    between atoms: _9  and  _10
REMARK    6  A    between atoms: _13  and  _15
REMARK    7  A    between atoms: _15  and  _16
REMARK    8  A    between atoms: _15  and  _18
REMARK    9  A    between atoms: _18  and  _19
REMARK   10  A    between atoms: _24  and  _26
REMARK   11  A    between atoms: _26  and  _27
REMARK   12  A    between atoms: _26  and  _29
REMARK   13  A    between atoms: _32  and  _34
REMARK   14  A    between atoms: _34  and  _35
REMARK   15  A    between atoms: _34  and  _37
REMARK   16  A    between atoms: _37  and  _38
REMARK   17  A    between atoms: _38  and  _39
REMARK   18  A    between atoms: _39  and  _40
REMARK   19  A    between atoms: _40  and  _41
REMARK   20  A    between atoms: _45  and  _47
REMARK   21  A    between atoms: _47  and  _48
REMARK   22  A    between atoms: _47  and  _50
REMARK   23  A    between atoms: _50  and  _51
REMARK   24  A    between atoms: _56  and  _57
REMARK   25  A    between atoms: _59  and  _61
REMARK   26  A    between atoms: _61  and  _62
REMARK   27  A    between atoms: _61  and  _64
REMARK   28  A    between atoms: _64  and  _65
REMARK   29  A    between atoms: _69  and  MN_472
REMARK   30  A    between atoms: _70  and  _72
REMARK   31  A    between atoms: _72  and  _73
REMARK   32  A    between atoms: _72  and  _75
REMARK   33  A    between atoms: _75  and  _76
REMARK   34  A    between atoms: _80  and  MN_472
REMARK   35  A    between atoms: _81  and  _83
REMARK   36  A    between atoms: _83  and  _84
REMARK   37  A    between atoms: _83  and  _86
REMARK   38  A    between atoms: _86  and  _87
REMARK   39  A    between atoms: _90  and  _92
REMARK   40  A    between atoms: _92  and  _93
REMARK   41  A    between atoms: _96  and  _98
REMARK   42  A    between atoms: _98  and  _99
REMARK   43  A    between atoms: _98  and  _101
REMARK   44  A    between atoms: _101  and  _102
REMARK   45  A    between atoms: _108  and  _110
REMARK   46  A    between atoms: _110  and  _111
REMARK   47  A    between atoms: _110  and  _113
REMARK   48  A    between atoms: _113  and  _114
REMARK   49  A    between atoms: _116  and  _118
REMARK   50  A    between atoms: _118  and  _119
REMARK   51  A    between atoms: _118  and  _121
REMARK   52  A    between atoms: _121  and  _122
REMARK   53  A    between atoms: _124  and  _126
REMARK   54  A    between atoms: _126  and  _127
REMARK   55  A    between atoms: _126  and  _129
REMARK   56  A    between atoms: _129  and  _130
REMARK   57  A    between atoms: _130  and  _131
REMARK   58  A    between atoms: _131  and  _132
REMARK   59  A    between atoms: _141  and  _143
REMARK   60  A    between atoms: _143  and  _144
REMARK   61  A    between atoms: _147  and  _149
REMARK   62  A    between atoms: _149  and  _150
REMARK   63  A    between atoms: _149  and  _152
REMARK   64  A    between atoms: _152  and  _153
REMARK   65  A    between atoms: _153  and  _154
REMARK   66  A    between atoms: _154  and  _155
REMARK   67  A    between atoms: _155  and  _156
REMARK   68  A    between atoms: _160  and  _162
REMARK   69  A    between atoms: _162  and  _163
REMARK   70  A    between atoms: _162  and  _165
REMARK   71  A    between atoms: _165  and  _166
REMARK   72  A    between atoms: _166  and  _167
REMARK   73  A    between atoms: _167  and  _168
REMARK   74  A    between atoms: _168  and  _169
REMARK   75  A    between atoms: _173  and  _175
REMARK   76  A    between atoms: _175  and  _176
REMARK   77  A    between atoms: _179  and  _181
REMARK   78  A    between atoms: _181  and  _182
REMARK   79  A    between atoms: _181  and  _184
REMARK   80  A    between atoms: _184  and  _185
REMARK   81  A    between atoms: _195  and  _197
REMARK   82  A    between atoms: _197  and  _198
REMARK   83  A    between atoms: _197  and  _200
REMARK   84  A    between atoms: _200  and  _201
REMARK   85  A    between atoms: _204  and  _206
REMARK   86  A    between atoms: _206  and  _207
REMARK   87  A    between atoms: _206  and  _209
REMARK   88  A    between atoms: _209  and  _210
REMARK   89  A    between atoms: _215  and  _217
REMARK   90  A    between atoms: _217  and  _218
REMARK   91  A    between atoms: _217  and  _220
REMARK   92  A    between atoms: _220  and  _221
REMARK   93  A    between atoms: _223  and  _225
REMARK   94  A    between atoms: _225  and  _226
REMARK   95  A    between atoms: _225  and  _228
REMARK   96  A    between atoms: _231  and  _233
REMARK   97  A    between atoms: _233  and  _234
REMARK   98  A    between atoms: _233  and  _236
REMARK   99  A    between atoms: _234  and  _235
REMARK  100  A    between atoms: _234  and  _238
REMARK  101  A    between atoms: _235  and  MG_473
REMARK  102  A    between atoms: _238  and  _240
REMARK  103  A    between atoms: _240  and  _241
REMARK  104  A    between atoms: _243  and  _245
REMARK  105  A    between atoms: _245  and  _246
REMARK  106  A    between atoms: _245  and  _248
REMARK  107  A    between atoms: _248  and  _249
REMARK  108  A    between atoms: _253  and  MN_472
REMARK  109  A    between atoms: _255  and  _256
REMARK  110  A    between atoms: _261  and  _263
REMARK  111  A    between atoms: _263  and  _264
REMARK  112  A    between atoms: _263  and  _266
REMARK  113  A    between atoms: _266  and  _267
REMARK  114  A    between atoms: _267  and  _268
REMARK  115  A    between atoms: _273  and  _275
REMARK  116  A    between atoms: _275  and  _276
REMARK  117  A    between atoms: _275  and  _278
REMARK  118  A    between atoms: _278  and  _279
REMARK  119  A    between atoms: _279  and  _280
REMARK  120  A    between atoms: _280  and  _281
REMARK  121  A    between atoms: _290  and  _292
REMARK  122  A    between atoms: _292  and  _293
REMARK  123  A    between atoms: _292  and  _295
REMARK  124  A    between atoms: _295  and  _296
REMARK  125  A    between atoms: _296  and  _297
REMARK  126  A    between atoms: _297  and  _298
REMARK  127  A    between atoms: _307  and  _309
REMARK  128  A    between atoms: _309  and  _310
REMARK  129  A    between atoms: _309  and  _312
REMARK  130  A    between atoms: _312  and  _313
REMARK  131  A    between atoms: _318  and  _319
REMARK  132  A    between atoms: _321  and  _323
REMARK  133  A    between atoms: _323  and  _324
REMARK  134  A    between atoms: _323  and  _326
REMARK  135  A    between atoms: _326  and  _327
REMARK  136  A    between atoms: _327  and  _328
REMARK  137  A    between atoms: _328  and  _330
REMARK  138  A    between atoms: _330  and  MG_473
REMARK  139  A    between atoms: _331  and  _333
REMARK  140  A    between atoms: _333  and  _334
REMARK  141  A    between atoms: _333  and  _336
REMARK  142  A    between atoms: _336  and  _337
REMARK  143  A    between atoms: _343  and  _345
REMARK  144  A    between atoms: _345  and  _346
REMARK  145  A    between atoms: _345  and  _348
REMARK  146  A    between atoms: _348  and  _349
REMARK  147  A    between atoms: _354  and  _355
REMARK  148  A    between atoms: _357  and  _359
REMARK  149  A    between atoms: _369  and  _372
REMARK  150  A    between atoms: _372  and  _373
REMARK  151  A    between atoms: _380  and  _381
REMARK  152  A    between atoms: _388  and  _390
REMARK  153  A    between atoms: _390  and  _391
REMARK  154  A    between atoms: _390  and  _393
REMARK  155  A    between atoms: _396  and  _398
REMARK  156  A    between atoms: _398  and  _399
REMARK  157  A    between atoms: _398  and  _401
REMARK  158  A    between atoms: _404  and  _405
REMARK  159  A    between atoms: _410  and  _412
REMARK  160  A    between atoms: _412  and  _413
REMARK  161  A    between atoms: _412  and  _415
REMARK  162  A    between atoms: _415  and  _416
REMARK  163  A    between atoms: _416  and  _417
REMARK  164  A    between atoms: _420  and  _422
REMARK  165  A    between atoms: _422  and  _423
REMARK  166  A    between atoms: _422  and  _425
REMARK  167  A    between atoms: _425  and  _426
REMARK  168  A    between atoms: _429  and  _430
REMARK  169  A    between atoms: _435  and  _437
REMARK  170  A    between atoms: _437  and  _438
REMARK  171  A    between atoms: _437  and  _440
REMARK  172  A    between atoms: _440  and  _441
REMARK  173  A    between atoms: _451  and  _453
REMARK  174  A    between atoms: _453  and  _454
REMARK  175  A    between atoms: _453  and  _456
REMARK  176  A    between atoms: _456  and  _457
REMARK  177  A    between atoms: _457  and  _458
REMARK  178  A    between atoms: _460  and  _462
REMARK  179  A    between atoms: _462  and  _463
REMARK  180  A    between atoms: _462  and  _465
REMARK  181  A    between atoms: _465  and  _466
REMARK  182  A    between atoms: _466  and  _467
REMARK                            x       y       z     vdW  Elec       q    Type
REMARK                         _______ _______ _______ _____ _____    ______ ____
ROOT
ATOM      1  CA  GLU A   1      -6.456   4.048  13.818  0.00  0.00    +0.134 C 
ENDROOT
BRANCH   1   2
ATOM      2  N   GLU A   1      -6.233   5.199  12.925  0.00  0.00    -0.239 NA
ATOM      3  H   GLU A   1      -6.972   5.920  12.798  0.00  0.00    +0.142 HD
ENDBRANCH   1   2
BRANCH   1   4
ATOM      4  C   GLU A   1      -7.595   3.225  13.319  0.00  0.00    +0.224 C 
ATOM      5  O   GLU A   1      -7.568   1.996  13.365  0.00  0.00    -0.287 OA
ENDBRANCH   1   4
BRANCH   1   6
ATOM      6  CB  GLU A   1      -6.711   4.530  15.257  0.00  0.00    +0.037 C 
BRANCH   6   7
ATOM      7  CG  GLU A   1      -5.534   5.282  15.930  0.00  0.00    +0.116 C 
BRANCH   7   8
ATOM      8  CD  GLU A   1      -4.306   4.386  16.178  0.00  0.00    +0.365 C 
ATOM      9  OE2 GLU A   1      -4.453   3.163  16.493  0.00  0.00    -0.246 OA
ATOM     10  OE1 GLU A   1      -3.166   4.915  16.030  0.00  0.00    -0.246 OA
ENDBRANCH   7   8
ENDBRANCH   6   7
ENDBRANCH   1   6
TORSDOF 5
REMARK  Name = ../refined-set-2016/2vnp/2vnp_pocket.pdb
REMARK  182 active torsions:
REMARK  status: ('A' for Active; 'I' for Inactive)
REMARK    1  A    between atoms: _1  and  _5
REMARK    2  A    between atoms: _5  and  _6
REMARK    3  A    between atoms: _5  and  _8
REMARK    4  A    between atoms: _8  and  _9
REMARK    5  A    between atoms: _9  and  _10
REMARK    6  A    between atoms: _13  and  _15
REMARK    7  A    between atoms: _15  and  _16
REMARK    8  A    between atoms: _15  and  _18
REMARK    9  A    between atoms: _18  and  _19
REMARK   10  A    between atoms: _24  and  _26
REMARK   11  A    between atoms: _26  and  _27
REMARK   12  A    between atoms: _26  and  _29
REMARK   13  A    between atoms: _32  and  _34
REMARK   14  A    between atoms: _34  and  _35
REMARK   15  A    between atoms: _34  and  _37
REMARK   16  A    between atoms: _37  and  _38
REMARK   17  A    between atoms: _38  and  _39
REMARK   18  A    between atoms: _39  and  _40
REMARK   19  A    between atoms: _40  and  _41
REMARK   20  A    between atoms: _45  and  _47
REMARK   21  A    between atoms: _47  and  _48
REMARK   22  A    between atoms: _47  and  _50
REMARK   23  A    between atoms: _50  and  _51
REMARK   24  A    between atoms: _56  and  _57
REMARK   25  A    between atoms: _59  and  _61
REMARK   26  A    between atoms: _61  and  _62
REMARK   27  A    between atoms: _61  and  _64
REMARK   28  A    between atoms: _64  and  _65
REMARK   29  A    between atoms: _69  and  MN_472
REMARK   30  A    between atoms: _70  and  _72
REMARK   31  A    between atoms: _72  and  _73
REMARK   32  A    between atoms: _72  and  _75
REMARK   33  A    between atoms: _75  and  _76
REMARK   34  A    between atoms: _80  and  MN_472
REMARK   35  A    between atoms: _81  and  _83
REMARK   36  A    between atoms: _83  and  _84
REMARK   37  A    between atoms: _83  and  _86
REMARK   38  A    between atoms: _86  and  _87
REMARK   39  A    between atoms: _90  and  _92
REMARK   40  A    between atoms: _92  and  _93
REMARK   41  A    between atoms: _96  and  _98
REMARK   42  A    between atoms: _98  and  _99
REMARK   43  A    between atoms: _98  and  _101
REMARK   44  A    between atoms: _101  and  _102
REMARK   45  A    between atoms: _108  and  _110
REMARK   46  A    between atoms: _110  and  _111
REMARK   47  A    between atoms: _110  and  _113
REMARK   48  A    between atoms: _113  and  _114
REMARK   49  A    between atoms: _116  and  _118
REMARK   50  A    between atoms: _118  and  _119
REMARK   51  A    between atoms: _118  and  _121
REMARK   52  A    between atoms: _121  and  _122
REMARK   53  A    between atoms: _124  and  _126
REMARK   54  A    between atoms: _126  and  _127
REMARK   55  A    between atoms: _126  and  _129
REMARK   56  A    between atoms: _129  and  _130
REMARK   57  A    between atoms: _130  and  _131
REMARK   58  A    between atoms: _131  and  _132
REMARK   59  A    between atoms: _141  and  _143
REMARK   60  A    between atoms: _143  and  _144
REMARK   61  A    between atoms: _147  and  _149
REMARK   62  A    between atoms: _149  and  _150
REMARK   63  A    between atoms: _149  and  _152
REMARK   64  A    between atoms: _152  and  _153
REMARK   65  A    between atoms: _153  and  _154
REMARK   66  A    between atoms: _154  and  _155
REMARK   67  A    between atoms: _155  and  _156
REMARK   68  A    between atoms: _160  and  _162
REMARK   69  A    between atoms: _162  and  _163
REMARK   70  A    between atoms: _162  and  _165
REMARK   71  A    between atoms: _165  and  _166
REMARK   72  A    between atoms: _166  and  _167
REMARK   73  A    between atoms: _167  and  _168
REMARK   74  A    between atoms: _168  and  _169
REMARK   75  A    between atoms: _173  and  _175
REMARK   76  A    between atoms: _175  and  _176
REMARK   77  A    between atoms: _179  and  _181
REMARK   78  A    between atoms: _181  and  _182
REMARK   79  A    between atoms: _181  and  _184
REMARK   80  A    between atoms: _184  and  _185
REMARK   81  A    between atoms: _195  and  _197
REMARK   82  A    between atoms: _197  and  _198
REMARK   83  A    between atoms: _197  and  _200
REMARK   84  A    between atoms: _200  and  _201
REMARK   85  A    between atoms: _204  and  _206
REMARK   86  A    between atoms: _206  and  _207
REMARK   87  A    between atoms: _206  and  _209
REMARK   88  A    between atoms: _209  and  _210
REMARK   89  A    between atoms: _215  and  _217
REMARK   90  A    between atoms: _217  and  _218
REMARK   91  A    between atoms: _217  and  _220
REMARK   92  A    between atoms: _220  and  _221
REMARK   93  A    between atoms: _223  and  _225
REMARK   94  A    between atoms: _225  and  _226
REMARK   95  A    between atoms: _225  and  _228
REMARK   96  A    between atoms: _231  and  _233
REMARK   97  A    between atoms: _233  and  _234
REMARK   98  A    between atoms: _233  and  _236
REMARK   99  A    between atoms: _234  and  _235
REMARK  100  A    between atoms: _234  and  _238
REMARK  101  A    between atoms: _235  and  MG_473
REMARK  102  A    between atoms: _238  and  _240
REMARK  103  A    between atoms: _240  and  _241
REMARK  104  A    between atoms: _243  and  _245
REMARK  105  A    between atoms: _245  and  _246
REMARK  106  A    between atoms: _245  and  _248
REMARK  107  A    between atoms: _248  and  _249
REMARK  108  A    between atoms: _253  and  MN_472
REMARK  109  A    between atoms: _255  and  _256
REMARK  110  A    between atoms: _261  and  _263
REMARK  111  A    between atoms: _263  and  _264
REMARK  112  A    between atoms: _263  and  _266
REMARK  113  A    between atoms: _266  and  _267
REMARK  114  A    between atoms: _267  and  _268
REMARK  115  A    between atoms: _273  and  _275
REMARK  116  A    between atoms: _275  and  _276
REMARK  117  A    between atoms: _275  and  _278
REMARK  118  A    between atoms: _278  and  _279
REMARK  119  A    between atoms: _279  and  _280
REMARK  120  A    between atoms: _280  and  _281
REMARK  121  A    between atoms: _290  and  _292
REMARK  122  A    between atoms: _292  and  _293
REMARK  123  A    between atoms: _292  and  _295
REMARK  124  A    between atoms: _295  and  _296
REMARK  125  A    between atoms: _296  and  _297
REMARK  126  A    between atoms: _297  and  _298
REMARK  127  A    between atoms: _307  and  _309
REMARK  128  A    between atoms: _309  and  _310
REMARK  129  A    between atoms: _309  and  _312
REMARK  130  A    between atoms: _312  and  _313
REMARK  131  A    between atoms: _318  and  _319
REMARK  132  A    between atoms: _321  and  _323
REMARK  133  A    between atoms: _323  and  _324
REMARK  134  A    between atoms: _323  and  _326
REMARK  135  A    between atoms: _326  and  _327
REMARK  136  A    between atoms: _327  and  _328
REMARK  137  A    between atoms: _328  and  _330
REMARK  138  A    between atoms: _330  and  MG_473
REMARK  139  A    between atoms: _331  and  _333
REMARK  140  A    between atoms: _333  and  _334
REMARK  141  A    between atoms: _333  and  _336
REMARK  142  A    between atoms: _336  and  _337
REMARK  143  A    between atoms: _343  and  _345
REMARK  144  A    between atoms: _345  and  _346
REMARK  145  A    between atoms: _345  and  _348
REMARK  146  A    between atoms: _348  and  _349
REMARK  147  A    between atoms: _354  and  _355
REMARK  148  A    between atoms: _357  and  _359
REMARK  149  A    between atoms: _369  and  _372
REMARK  150  A    between atoms: _372  and  _373
REMARK  151  A    between atoms: _380  and  _381
REMARK  152  A    between atoms: _388  and  _390
REMARK  153  A    between atoms: _390  and  _391
REMARK  154  A    between atoms: _390  and  _393
REMARK  155  A    between atoms: _396  and  _398
REMARK  156  A    between atoms: _398  and  _399
REMARK  157  A    between atoms: _398  and  _401
REMARK  158  A    between atoms: _404  and  _405
REMARK  159  A    between atoms: _410  and  _412
REMARK  160  A    between atoms: _412  and  _413
REMARK  161  A    between atoms: _412  and  _415
REMARK  162  A    between atoms: _415  and  _416
REMARK  163  A    between atoms: _416  and  _417
REMARK  164  A    between atoms: _420  and  _422
REMARK  165  A    between atoms: _422  and  _423
REMARK  166  A    between atoms: _422  and  _425
REMARK  167  A    between atoms: _425  and  _426
REMARK  168  A    between atoms: _429  and  _430
REMARK  169  A    between atoms: _435  and  _437
REMARK  170  A    between atoms: _437  and  _438
REMARK  171  A    between atoms: _437  and  _440
REMARK  172  A    between atoms: _440  and  _441
REMARK  173  A    between atoms: _451  and  _453
REMARK  174  A    between atoms: _453  and  _454
REMARK  175  A    between atoms: _453  and  _456
REMARK  176  A    between atoms: _456  and  _457
REMARK  177  A    between atoms: _457  and  _458
REMARK  178  A    between atoms: _460  and  _462
REMARK  179  A    between atoms: _462  and  _463
REMARK  180  A    between atoms: _462  and  _465
REMARK  181  A    between atoms: _465  and  _466
REMARK  182  A    between atoms: _466  and  _467
REMARK                            x       y       z     vdW  Elec       q    Type
REMARK                         _______ _______ _______ _____ _____    ______ ____
ROOT
ATOM      1  CA  TRP A   3      -9.073 -11.424  20.750  0.00  0.00    +0.153 C 
ENDROOT
BRANCH   1   4
ATOM      2  C   PRO A   2      -9.082 -12.944  18.874  0.00  0.00    +0.241 C 
ATOM      3  O   PRO A   2      -9.708 -13.754  19.515  0.00  0.00    -0.273 OA
ATOM      4  N   TRP A   3      -8.715 -11.752  19.350  0.00  0.00    -0.297 N 
ATOM      5  H   TRP A   3      -8.194 -11.075  18.757  0.00  0.00    +0.150 HD
BRANCH   2   9
ATOM      6  C   SER A   1      -9.877 -11.447  16.393  0.00  0.00    +0.244 C 
ATOM      7  O   SER A   1     -10.894 -11.748  16.954  0.00  0.00    -0.273 OA
ATOM      8  N   PRO A   2      -8.775 -12.166  16.530  0.00  0.00    -0.272 N 
ATOM      9  CA  PRO A   2      -8.756 -13.290  17.453  0.00  0.00    +0.152 C 
ATOM     10  CB  PRO A   2      -7.303 -13.788  17.376  0.00  0.00    +0.031 C 
ATOM     11  CG  PRO A   2      -6.724 -13.122  16.129  0.00  0.00    +0.024 C 
ATOM     12  CD  PRO A   2      -7.516 -12.018  15.735  0.00  0.00    +0.094 C 
BRANCH   6  13
ATOM     13  CA  SER A   1      -9.826 -10.251  15.440  0.00  0.00    +0.175 C 
BRANCH  13  14
ATOM     14  N   SER A   1     -11.147 -10.068  14.821  0.00  0.00    -0.236 NA
ATOM     15  H   SER A   1     -11.730  -9.244  15.072  0.00  0.00    +0.142 HD
ENDBRANCH  13  14
BRANCH  13  16
ATOM     16  CB  SER A   1      -9.379  -8.997  16.229  0.00  0.00    +0.163 C 
BRANCH  16  17
ATOM     17  OG  SER A   1     -10.300  -8.736  17.280  0.00  0.00    -0.380 OA
ATOM     18  H   SER A   1     -10.009  -7.933  17.781  0.00  0.00    +0.211 HD
ENDBRANCH  16  17
ENDBRANCH  13  16
ENDBRANCH   6  13
ENDBRANCH   2   9
ENDBRANCH   1   4
BRANCH   1  19
ATOM     19  C   TRP A   3     -10.559 -11.104  20.885  0.00  0.00    +0.241 C 
ATOM     20  O   TRP A   3     -11.206 -11.508  21.826  0.00  0.00    -0.273 OA
ATOM     21  N   MET A   4     -11.133 -10.472  19.889  0.00  0.00    -0.298 N 
ATOM     22  H   MET A   4     -10.570 -10.089  19.103  0.00  0.00    +0.150 HD
BRANCH  21  23
ATOM     23  CA  MET A   4     -12.606 -10.319  19.916  0.00  0.00    +0.138 C 
BRANCH  23  24
ATOM     24  C   MET A   4     -13.408 -11.627  20.025  0.00  0.00    +0.227 C 
ATOM     25  O   MET A   4     -14.356 -11.730  20.813  0.00  0.00    -0.286 OA
ENDBRANCH  23  24
BRANCH  23  26
ATOM     26  CB  MET A   4     -13.072  -9.457  18.731  0.00  0.00    +0.039 C 
BRANCH  26  27
ATOM     27  CG  MET A   4     -14.581  -9.288  18.736  0.00  0.00    +0.060 C 
BRANCH  27  28
ATOM     28  SD  MET A   4     -15.041  -8.596  17.155  0.00  0.00    -0.139 S 
ATOM     29  CE  MET A   4     -16.528  -7.662  17.646  0.00  0.00    +0.069 C 
ENDBRANCH  27  28
ENDBRANCH  26  27
ENDBRANCH  23  26
ENDBRANCH  21  23
ENDBRANCH   1  19
BRANCH   1  30
ATOM     30  CB  TRP A   3      -8.235 -10.319  21.354  0.00  0.00    +0.057 C 
BRANCH  30  31
ATOM     31  CG  TRP A   3      -8.243  -9.061  20.542  0.00  0.00    -0.002 A 
ATOM     32  CD1 TRP A   3      -9.103  -8.052  20.665  0.00  0.00    +0.068 A 
ATOM     33  NE1 TRP A   3      -8.818  -7.058  19.750  0.00  0.00    -0.352 N 
ATOM     34  HE1 TRP A   3      -9.328  -6.156  19.660  0.00  0.00    +0.166 HD
ATOM     35  CE2 TRP A   3      -7.758  -7.450  18.982  0.00  0.00    +0.056 A 
ATOM     36  CZ2 TRP A   3      -7.087  -6.777  17.922  0.00  0.00    +0.017 A 
ATOM     37  CH2 TRP A   3      -6.058  -7.444  17.307  0.00  0.00    +0.001 A 
ATOM     38  CZ3 TRP A   3      -5.620  -8.723  17.761  0.00  0.00    +0.000 A 
ATOM     39  CE3 TRP A   3      -6.266  -9.383  18.833  0.00  0.00    +0.001 A 
ATOM     40  CD2 TRP A   3      -7.382  -8.742  19.434  0.00  0.00    +0.013 A 
ENDBRANCH  30  31
ENDBRANCH   1  30
TORSDOF 14
REMARK  Name = ../refined-set-2016/2vnp/2vnp_pocket.pdb
REMARK  182 active torsions:
REMARK  status: ('A' for Active; 'I' for Inactive)
REMARK    1  A    between atoms: _1  and  _5
REMARK    2  A    between atoms: _5  and  _6
REMARK    3  A    between atoms: _5  and  _8
REMARK    4  A    between atoms: _8  and  _9
REMARK    5  A    between atoms: _9  and  _10
REMARK    6  A    between atoms: _13  and  _15
REMARK    7  A    between atoms: _15  and  _16
REMARK    8  A    between atoms: _15  and  _18
REMARK    9  A    between atoms: _18  and  _19
REMARK   10  A    between atoms: _24  and  _26
REMARK   11  A    between atoms: _26  and  _27
REMARK   12  A    between atoms: _26  and  _29
REMARK   13  A    between atoms: _32  and  _34
REMARK   14  A    between atoms: _34  and  _35
REMARK   15  A    between atoms: _34  and  _37
REMARK   16  A    between atoms: _37  and  _38
REMARK   17  A    between atoms: _38  and  _39
REMARK   18  A    between atoms: _39  and  _40
REMARK   19  A    between atoms: _40  and  _41
REMARK   20  A    between atoms: _45  and  _47
REMARK   21  A    between atoms: _47  and  _48
REMARK   22  A    between atoms: _47  and  _50
REMARK   23  A    between atoms: _50  and  _51
REMARK   24  A    between atoms: _56  and  _57
REMARK   25  A    between atoms: _59  and  _61
REMARK   26  A    between atoms: _61  and  _62
REMARK   27  A    between atoms: _61  and  _64
REMARK   28  A    between atoms: _64  and  _65
REMARK   29  A    between atoms: _69  and  MN_472
REMARK   30  A    between atoms: _70  and  _72
REMARK   31  A    between atoms: _72  and  _73
REMARK   32  A    between atoms: _72  and  _75
REMARK   33  A    between atoms: _75  and  _76
REMARK   34  A    between atoms: _80  and  MN_472
REMARK   35  A    between atoms: _81  and  _83
REMARK   36  A    between atoms: _83  and  _84
REMARK   37  A    between atoms: _83  and  _86
REMARK   38  A    between atoms: _86  and  _87
REMARK   39  A    between atoms: _90  and  _92
REMARK   40  A    between atoms: _92  and  _93
REMARK   41  A    between atoms: _96  and  _98
REMARK   42  A    between atoms: _98  and  _99
REMARK   43  A    between atoms: _98  and  _101
REMARK   44  A    between atoms: _101  and  _102
REMARK   45  A    between atoms: _108  and  _110
REMARK   46  A    between atoms: _110  and  _111
REMARK   47  A    between atoms: _110  and  _113
REMARK   48  A    between atoms: _113  and  _114
REMARK   49  A    between atoms: _116  and  _118
REMARK   50  A    between atoms: _118  and  _119
REMARK   51  A    between atoms: _118  and  _121
REMARK   52  A    between atoms: _121  and  _122
REMARK   53  A    between atoms: _124  and  _126
REMARK   54  A    between atoms: _126  and  _127
REMARK   55  A    between atoms: _126  and  _129
REMARK   56  A    between atoms: _129  and  _130
REMARK   57  A    between atoms: _130  and  _131
REMARK   58  A    between atoms: _131  and  _132
REMARK   59  A    between atoms: _141  and  _143
REMARK   60  A    between atoms: _143  and  _144
REMARK   61  A    between atoms: _147  and  _149
REMARK   62  A    between atoms: _149  and  _150
REMARK   63  A    between atoms: _149  and  _152
REMARK   64  A    between atoms: _152  and  _153
REMARK   65  A    between atoms: _153  and  _154
REMARK   66  A    between atoms: _154  and  _155
REMARK   67  A    between atoms: _155  and  _156
REMARK   68  A    between atoms: _160  and  _162
REMARK   69  A    between atoms: _162  and  _163
REMARK   70  A    between atoms: _162  and  _165
REMARK   71  A    between atoms: _165  and  _166
REMARK   72  A    between atoms: _166  and  _167
REMARK   73  A    between atoms: _167  and  _168
REMARK   74  A    between atoms: _168  and  _169
REMARK   75  A    between atoms: _173  and  _175
REMARK   76  A    between atoms: _175  and  _176
REMARK   77  A    between atoms: _179  and  _181
REMARK   78  A    between atoms: _181  and  _182
REMARK   79  A    between atoms: _181  and  _184
REMARK   80  A    between atoms: _184  and  _185
REMARK   81  A    between atoms: _195  and  _197
REMARK   82  A    between atoms: _197  and  _198
REMARK   83  A    between atoms: _197  and  _200
REMARK   84  A    between atoms: _200  and  _201
REMARK   85  A    between atoms: _204  and  _206
REMARK   86  A    between atoms: _206  and  _207
REMARK   87  A    between atoms: _206  and  _209
REMARK   88  A    between atoms: _209  and  _210
REMARK   89  A    between atoms: _215  and  _217
REMARK   90  A    between atoms: _217  and  _218
REMARK   91  A    between atoms: _217  and  _220
REMARK   92  A    between atoms: _220  and  _221
REMARK   93  A    between atoms: _223  and  _225
REMARK   94  A    between atoms: _225  and  _226
REMARK   95  A    between atoms: _225  and  _228
REMARK   96  A    between atoms: _231  and  _233
REMARK   97  A    between atoms: _233  and  _234
REMARK   98  A    between atoms: _233  and  _236
REMARK   99  A    between atoms: _234  and  _235
REMARK  100  A    between atoms: _234  and  _238
REMARK  101  A    between atoms: _235  and  MG_473
REMARK  102  A    between atoms: _238  and  _240
REMARK  103  A    between atoms: _240  and  _241
REMARK  104  A    between atoms: _243  and  _245
REMARK  105  A    between atoms: _245  and  _246
REMARK  106  A    between atoms: _245  and  _248
REMARK  107  A    between atoms: _248  and  _249
REMARK  108  A    between atoms: _253  and  MN_472
REMARK  109  A    between atoms: _255  and  _256
REMARK  110  A    between atoms: _261  and  _263
REMARK  111  A    between atoms: _263  and  _264
REMARK  112  A    between atoms: _263  and  _266
REMARK  113  A    between atoms: _266  and  _267
REMARK  114  A    between atoms: _267  and  _268
REMARK  115  A    between atoms: _273  and  _275
REMARK  116  A    between atoms: _275  and  _276
REMARK  117  A    between atoms: _275  and  _278
REMARK  118  A    between atoms: _278  and  _279
REMARK  119  A    between atoms: _279  and  _280
REMARK  120  A    between atoms: _280  and  _281
REMARK  121  A    between atoms: _290  and  _292
REMARK  122  A    between atoms: _292  and  _293
REMARK  123  A    between atoms: _292  and  _295
REMARK  124  A    between atoms: _295  and  _296
REMARK  125  A    between atoms: _296  and  _297
REMARK  126  A    between atoms: _297  and  _298
REMARK  127  A    between atoms: _307  and  _309
REMARK  128  A    between atoms: _309  and  _310
REMARK  129  A    between atoms: _309  and  _312
REMARK  130  A    between atoms: _312  and  _313
REMARK  131  A    between atoms: _318  and  _319
REMARK  132  A    between atoms: _321  and  _323
REMARK  133  A    between atoms: _323  and  _324
REMARK  134  A    between atoms: _323  and  _326
REMARK  135  A    between atoms: _326  and  _327
REMARK  136  A    between atoms: _327  and  _328
REMARK  137  A    between atoms: _328  and  _330
REMARK  138  A    between atoms: _330  and  MG_473
REMARK  139  A    between atoms: _331  and  _333
REMARK  140  A    between atoms: _333  and  _334
REMARK  141  A    between atoms: _333  and  _336
REMARK  142  A    between atoms: _336  and  _337
REMARK  143  A    between atoms: _343  and  _345
REMARK  144  A    between atoms: _345  and  _346
REMARK  145  A    between atoms: _345  and  _348
REMARK  146  A    between atoms: _348  and  _349
REMARK  147  A    between atoms: _354  and  _355
REMARK  148  A    between atoms: _357  and  _359
REMARK  149  A    between atoms: _369  and  _372
REMARK  150  A    between atoms: _372  and  _373
REMARK  151  A    between atoms: _380  and  _381
REMARK  152  A    between atoms: _388  and  _390
REMARK  153  A    between atoms: _390  and  _391
REMARK  154  A    between atoms: _390  and  _393
REMARK  155  A    between atoms: _396  and  _398
REMARK  156  A    between atoms: _398  and  _399
REMARK  157  A    between atoms: _398  and  _401
REMARK  158  A    between atoms: _404  and  _405
REMARK  159  A    between atoms: _410  and  _412
REMARK  160  A    between atoms: _412  and  _413
REMARK  161  A    between atoms: _412  and  _415
REMARK  162  A    between atoms: _415  and  _416
REMARK  163  A    between atoms: _416  and  _417
REMARK  164  A    between atoms: _420  and  _422
REMARK  165  A    between atoms: _422  and  _423
REMARK  166  A    between atoms: _422  and  _425
REMARK  167  A    between atoms: _425  and  _426
REMARK  168  A    between atoms: _429  and  _430
REMARK  169  A    between atoms: _435  and  _437
REMARK  170  A    between atoms: _437  and  _438
REMARK  171  A    between atoms: _437  and  _440
REMARK  172  A    between atoms: _440  and  _441
REMARK  173  A    between atoms: _451  and  _453
REMARK  174  A    between atoms: _453  and  _454
REMARK  175  A    between atoms: _453  and  _456
REMARK  176  A    between atoms: _456  and  _457
REMARK  177  A    between atoms: _457  and  _458
REMARK  178  A    between atoms: _460  and  _462
REMARK  179  A    between atoms: _462  and  _463
REMARK  180  A    between atoms: _462  and  _465
REMARK  181  A    between atoms: _465  and  _466
REMARK  182  A    between atoms: _466  and  _467
REMARK                            x       y       z     vdW  Elec       q    Type
REMARK                         _______ _______ _______ _____ _____    ______ ____
ROOT
ATOM      1  CB  GLN A   1     -13.151 -11.143  24.243  0.00  0.00    +0.035 C 
ENDROOT
BRANCH   1   2
ATOM      2  CA  GLN A   1     -13.379 -12.617  24.460  0.00  0.00    +0.134 C 
BRANCH   2   3
ATOM      3  N   GLN A   1     -12.640 -13.383  23.469  0.00  0.00    -0.239 NA
ATOM      4  H   GLN A   1     -12.071 -12.876  22.761  0.00  0.00    +0.142 HD
ENDBRANCH   2   3
BRANCH   2   5
ATOM      5  C   GLN A   1     -14.879 -12.937  24.453  0.00  0.00    +0.224 C 
ATOM      6  O   GLN A   1     -15.451 -13.274  25.507  0.00  0.00    -0.287 OA
ENDBRANCH   2   5
ENDBRANCH   1   2
BRANCH   1   7
ATOM      7  CG  GLN A   1     -11.810 -10.680  24.676  0.00  0.00    +0.087 C 
BRANCH   7   8
ATOM      8  CD  GLN A   1     -11.552  -9.234  24.273  0.00  0.00    +0.219 C 
ATOM      9  OE1 GLN A   1     -12.469  -8.414  24.153  0.00  0.00    -0.275 OA
ATOM     10  NE2 GLN A   1     -10.316  -8.902  24.119  0.00  0.00    -0.329 N 
ATOM     11 HE21 GLN A   1      -9.568  -9.617  24.227  0.00  0.00    +0.145 HD
ATOM     12 HE22 GLN A   1     -10.067  -7.919  23.887  0.00  0.00    +0.145 HD
ENDBRANCH   7   8
ENDBRANCH   1   7
TORSDOF 5
REMARK  Name = ../refined-set-2016/2vnp/2vnp_pocket.pdb
REMARK  182 active torsions:
REMARK  status: ('A' for Active; 'I' for Inactive)
REMARK    1  A    between atoms: _1  and  _5
REMARK    2  A    between atoms: _5  and  _6
REMARK    3  A    between atoms: _5  and  _8
REMARK    4  A    between atoms: _8  and  _9
REMARK    5  A    between atoms: _9  and  _10
REMARK    6  A    between atoms: _13  and  _15
REMARK    7  A    between atoms: _15  and  _16
REMARK    8  A    between atoms: _15  and  _18
REMARK    9  A    between atoms: _18  and  _19
REMARK   10  A    between atoms: _24  and  _26
REMARK   11  A    between atoms: _26  and  _27
REMARK   12  A    between atoms: _26  and  _29
REMARK   13  A    between atoms: _32  and  _34
REMARK   14  A    between atoms: _34  and  _35
REMARK   15  A    between atoms: _34  and  _37
REMARK   16  A    between atoms: _37  and  _38
REMARK   17  A    between atoms: _38  and  _39
REMARK   18  A    between atoms: _39  and  _40
REMARK   19  A    between atoms: _40  and  _41
REMARK   20  A    between atoms: _45  and  _47
REMARK   21  A    between atoms: _47  and  _48
REMARK   22  A    between atoms: _47  and  _50
REMARK   23  A    between atoms: _50  and  _51
REMARK   24  A    between atoms: _56  and  _57
REMARK   25  A    between atoms: _59  and  _61
REMARK   26  A    between atoms: _61  and  _62
REMARK   27  A    between atoms: _61  and  _64
REMARK   28  A    between atoms: _64  and  _65
REMARK   29  A    between atoms: _69  and  MN_472
REMARK   30  A    between atoms: _70  and  _72
REMARK   31  A    between atoms: _72  and  _73
REMARK   32  A    between atoms: _72  and  _75
REMARK   33  A    between atoms: _75  and  _76
REMARK   34  A    between atoms: _80  and  MN_472
REMARK   35  A    between atoms: _81  and  _83
REMARK   36  A    between atoms: _83  and  _84
REMARK   37  A    between atoms: _83  and  _86
REMARK   38  A    between atoms: _86  and  _87
REMARK   39  A    between atoms: _90  and  _92
REMARK   40  A    between atoms: _92  and  _93
REMARK   41  A    between atoms: _96  and  _98
REMARK   42  A    between atoms: _98  and  _99
REMARK   43  A    between atoms: _98  and  _101
REMARK   44  A    between atoms: _101  and  _102
REMARK   45  A    between atoms: _108  and  _110
REMARK   46  A    between atoms: _110  and  _111
REMARK   47  A    between atoms: _110  and  _113
REMARK   48  A    between atoms: _113  and  _114
REMARK   49  A    between atoms: _116  and  _118
REMARK   50  A    between atoms: _118  and  _119
REMARK   51  A    between atoms: _118  and  _121
REMARK   52  A    between atoms: _121  and  _122
REMARK   53  A    between atoms: _124  and  _126
REMARK   54  A    between atoms: _126  and  _127
REMARK   55  A    between atoms: _126  and  _129
REMARK   56  A    between atoms: _129  and  _130
REMARK   57  A    between atoms: _130  and  _131
REMARK   58  A    between atoms: _131  and  _132
REMARK   59  A    between atoms: _141  and  _143
REMARK   60  A    between atoms: _143  and  _144
REMARK   61  A    between atoms: _147  and  _149
REMARK   62  A    between atoms: _149  and  _150
REMARK   63  A    between atoms: _149  and  _152
REMARK   64  A    between atoms: _152  and  _153
REMARK   65  A    between atoms: _153  and  _154
REMARK   66  A    between atoms: _154  and  _155
REMARK   67  A    between atoms: _155  and  _156
REMARK   68  A    between atoms: _160  and  _162
REMARK   69  A    between atoms: _162  and  _163
REMARK   70  A    between atoms: _162  and  _165
REMARK   71  A    between atoms: _165  and  _166
REMARK   72  A    between atoms: _166  and  _167
REMARK   73  A    between atoms: _167  and  _168
REMARK   74  A    between atoms: _168  and  _169
REMARK   75  A    between atoms: _173  and  _175
REMARK   76  A    between atoms: _175  and  _176
REMARK   77  A    between atoms: _179  and  _181
REMARK   78  A    between atoms: _181  and  _182
REMARK   79  A    between atoms: _181  and  _184
REMARK   80  A    between atoms: _184  and  _185
REMARK   81  A    between atoms: _195  and  _197
REMARK   82  A    between atoms: _197  and  _198
REMARK   83  A    between atoms: _197  and  _200
REMARK   84  A    between atoms: _200  and  _201
REMARK   85  A    between atoms: _204  and  _206
REMARK   86  A    between atoms: _206  and  _207
REMARK   87  A    between atoms: _206  and  _209
REMARK   88  A    between atoms: _209  and  _210
REMARK   89  A    between atoms: _215  and  _217
REMARK   90  A    between atoms: _217  and  _218
REMARK   91  A    between atoms: _217  and  _220
REMARK   92  A    between atoms: _220  and  _221
REMARK   93  A    between atoms: _223  and  _225
REMARK   94  A    between atoms: _225  and  _226
REMARK   95  A    between atoms: _225  and  _228
REMARK   96  A    between atoms: _231  and  _233
REMARK   97  A    between atoms: _233  and  _234
REMARK   98  A    between atoms: _233  and  _236
REMARK   99  A    between atoms: _234  and  _235
REMARK  100  A    between atoms: _234  and  _238
REMARK  101  A    between atoms: _235  and  MG_473
REMARK  102  A    between atoms: _238  and  _240
REMARK  103  A    between atoms: _240  and  _241
REMARK  104  A    between atoms: _243  and  _245
REMARK  105  A    between atoms: _245  and  _246
REMARK  106  A    between atoms: _245  and  _248
REMARK  107  A    between atoms: _248  and  _249
REMARK  108  A    between atoms: _253  and  MN_472
REMARK  109  A    between atoms: _255  and  _256
REMARK  110  A    between atoms: _261  and  _263
REMARK  111  A    between atoms: _263  and  _264
REMARK  112  A    between atoms: _263  and  _266
REMARK  113  A    between atoms: _266  and  _267
REMARK  114  A    between atoms: _267  and  _268
REMARK  115  A    between atoms: _273  and  _275
REMARK  116  A    between atoms: _275  and  _276
REMARK  117  A    between atoms: _275  and  _278
REMARK  118  A    between atoms: _278  and  _279
REMARK  119  A    between atoms: _279  and  _280
REMARK  120  A    between atoms: _280  and  _281
REMARK  121  A    between atoms: _290  and  _292
REMARK  122  A    between atoms: _292  and  _293
REMARK  123  A    between atoms: _292  and  _295
REMARK  124  A    between atoms: _295  and  _296
REMARK  125  A    between atoms: _296  and  _297
REMARK  126  A    between atoms: _297  and  _298
REMARK  127  A    between atoms: _307  and  _309
REMARK  128  A    between atoms: _309  and  _310
REMARK  129  A    between atoms: _309  and  _312
REMARK  130  A    between atoms: _312  and  _313
REMARK  131  A    between atoms: _318  and  _319
REMARK  132  A    between atoms: _321  and  _323
REMARK  133  A    between atoms: _323  and  _324
REMARK  134  A    between atoms: _323  and  _326
REMARK  135  A    between atoms: _326  and  _327
REMARK  136  A    between atoms: _327  and  _328
REMARK  137  A    between atoms: _328  and  _330
REMARK  138  A    between atoms: _330  and  MG_473
REMARK  139  A    between atoms: _331  and  _333
REMARK  140  A    between atoms: _333  and  _334
REMARK  141  A    between atoms: _333  and  _336
REMARK  142  A    between atoms: _336  and  _337
REMARK  143  A    between atoms: _343  and  _345
REMARK  144  A    between atoms: _345  and  _346
REMARK  145  A    between atoms: _345  and  _348
REMARK  146  A    between atoms: _348  and  _349
REMARK  147  A    between atoms: _354  and  _355
REMARK  148  A    between atoms: _357  and  _359
REMARK  149  A    between atoms: _369  and  _372
REMARK  150  A    between atoms: _372  and  _373
REMARK  151  A    between atoms: _380  and  _381
REMARK  152  A    between atoms: _388  and  _390
REMARK  153  A    between atoms: _390  and  _391
REMARK  154  A    between atoms: _390  and  _393
REMARK  155  A    between atoms: _396  and  _398
REMARK  156  A    between atoms: _398  and  _399
REMARK  157  A    between atoms: _398  and  _401
REMARK  158  A    between atoms: _404  and  _405
REMARK  159  A    between atoms: _410  and  _412
REMARK  160  A    between atoms: _412  and  _413
REMARK  161  A    between atoms: _412  and  _415
REMARK  162  A    between atoms: _415  and  _416
REMARK  163  A    between atoms: _416  and  _417
REMARK  164  A    between atoms: _420  and  _422
REMARK  165  A    between atoms: _422  and  _423
REMARK  166  A    between atoms: _422  and  _425
REMARK  167  A    between atoms: _425  and  _426
REMARK  168  A    between atoms: _429  and  _430
REMARK  169  A    between atoms: _435  and  _437
REMARK  170  A    between atoms: _437  and  _438
REMARK  171  A    between atoms: _437  and  _440
REMARK  172  A    between atoms: _440  and  _441
REMARK  173  A    between atoms: _451  and  _453
REMARK  174  A    between atoms: _453  and  _454
REMARK  175  A    between atoms: _453  and  _456
REMARK  176  A    between atoms: _456  and  _457
REMARK  177  A    between atoms: _457  and  _458
REMARK  178  A    between atoms: _460  and  _462
REMARK  179  A    between atoms: _462  and  _463
REMARK  180  A    between atoms: _462  and  _465
REMARK  181  A    between atoms: _465  and  _466
REMARK  182  A    between atoms: _466  and  _467
REMARK                            x       y       z     vdW  Elec       q    Type
REMARK                         _______ _______ _______ _____ _____    ______ ____
ROOT
ATOM      1  O   HOH     1      -8.476  -2.265  17.399  0.00  0.00    +0.000 OA
ENDROOT
TORSDOF 0
REMARK  Name = ../refined-set-2016/2vnp/2vnp_pocket.pdb
REMARK  182 active torsions:
REMARK  status: ('A' for Active; 'I' for Inactive)
REMARK    1  A    between atoms: _1  and  _5
REMARK    2  A    between atoms: _5  and  _6
REMARK    3  A    between atoms: _5  and  _8
REMARK    4  A    between atoms: _8  and  _9
REMARK    5  A    between atoms: _9  and  _10
REMARK    6  A    between atoms: _13  and  _15
REMARK    7  A    between atoms: _15  and  _16
REMARK    8  A    between atoms: _15  and  _18
REMARK    9  A    between atoms: _18  and  _19
REMARK   10  A    between atoms: _24  and  _26
REMARK   11  A    between atoms: _26  and  _27
REMARK   12  A    between atoms: _26  and  _29
REMARK   13  A    between atoms: _32  and  _34
REMARK   14  A    between atoms: _34  and  _35
REMARK   15  A    between atoms: _34  and  _37
REMARK   16  A    between atoms: _37  and  _38
REMARK   17  A    between atoms: _38  and  _39
REMARK   18  A    between atoms: _39  and  _40
REMARK   19  A    between atoms: _40  and  _41
REMARK   20  A    between atoms: _45  and  _47
REMARK   21  A    between atoms: _47  and  _48
REMARK   22  A    between atoms: _47  and  _50
REMARK   23  A    between atoms: _50  and  _51
REMARK   24  A    between atoms: _56  and  _57
REMARK   25  A    between atoms: _59  and  _61
REMARK   26  A    between atoms: _61  and  _62
REMARK   27  A    between atoms: _61  and  _64
REMARK   28  A    between atoms: _64  and  _65
REMARK   29  A    between atoms: _69  and  MN_472
REMARK   30  A    between atoms: _70  and  _72
REMARK   31  A    between atoms: _72  and  _73
REMARK   32  A    between atoms: _72  and  _75
REMARK   33  A    between atoms: _75  and  _76
REMARK   34  A    between atoms: _80  and  MN_472
REMARK   35  A    between atoms: _81  and  _83
REMARK   36  A    between atoms: _83  and  _84
REMARK   37  A    between atoms: _83  and  _86
REMARK   38  A    between atoms: _86  and  _87
REMARK   39  A    between atoms: _90  and  _92
REMARK   40  A    between atoms: _92  and  _93
REMARK   41  A    between atoms: _96  and  _98
REMARK   42  A    between atoms: _98  and  _99
REMARK   43  A    between atoms: _98  and  _101
REMARK   44  A    between atoms: _101  and  _102
REMARK   45  A    between atoms: _108  and  _110
REMARK   46  A    between atoms: _110  and  _111
REMARK   47  A    between atoms: _110  and  _113
REMARK   48  A    between atoms: _113  and  _114
REMARK   49  A    between atoms: _116  and  _118
REMARK   50  A    between atoms: _118  and  _119
REMARK   51  A    between atoms: _118  and  _121
REMARK   52  A    between atoms: _121  and  _122
REMARK   53  A    between atoms: _124  and  _126
REMARK   54  A    between atoms: _126  and  _127
REMARK   55  A    between atoms: _126  and  _129
REMARK   56  A    between atoms: _129  and  _130
REMARK   57  A    between atoms: _130  and  _131
REMARK   58  A    between atoms: _131  and  _132
REMARK   59  A    between atoms: _141  and  _143
REMARK   60  A    between atoms: _143  and  _144
REMARK   61  A    between atoms: _147  and  _149
REMARK   62  A    between atoms: _149  and  _150
REMARK   63  A    between atoms: _149  and  _152
REMARK   64  A    between atoms: _152  and  _153
REMARK   65  A    between atoms: _153  and  _154
REMARK   66  A    between atoms: _154  and  _155
REMARK   67  A    between atoms: _155  and  _156
REMARK   68  A    between atoms: _160  and  _162
REMARK   69  A    between atoms: _162  and  _163
REMARK   70  A    between atoms: _162  and  _165
REMARK   71  A    between atoms: _165  and  _166
REMARK   72  A    between atoms: _166  and  _167
REMARK   73  A    between atoms: _167  and  _168
REMARK   74  A    between atoms: _168  and  _169
REMARK   75  A    between atoms: _173  and  _175
REMARK   76  A    between atoms: _175  and  _176
REMARK   77  A    between atoms: _179  and  _181
REMARK   78  A    between atoms: _181  and  _182
REMARK   79  A    between atoms: _181  and  _184
REMARK   80  A    between atoms: _184  and  _185
REMARK   81  A    between atoms: _195  and  _197
REMARK   82  A    between atoms: _197  and  _198
REMARK   83  A    between atoms: _197  and  _200
REMARK   84  A    between atoms: _200  and  _201
REMARK   85  A    between atoms: _204  and  _206
REMARK   86  A    between atoms: _206  and  _207
REMARK   87  A    between atoms: _206  and  _209
REMARK   88  A    between atoms: _209  and  _210
REMARK   89  A    between atoms: _215  and  _217
REMARK   90  A    between atoms: _217  and  _218
REMARK   91  A    between atoms: _217  and  _220
REMARK   92  A    between atoms: _220  and  _221
REMARK   93  A    between atoms: _223  and  _225
REMARK   94  A    between atoms: _225  and  _226
REMARK   95  A    between atoms: _225  and  _228
REMARK   96  A    between atoms: _231  and  _233
REMARK   97  A    between atoms: _233  and  _234
REMARK   98  A    between atoms: _233  and  _236
REMARK   99  A    between atoms: _234  and  _235
REMARK  100  A    between atoms: _234  and  _238
REMARK  101  A    between atoms: _235  and  MG_473
REMARK  102  A    between atoms: _238  and  _240
REMARK  103  A    between atoms: _240  and  _241
REMARK  104  A    between atoms: _243  and  _245
REMARK  105  A    between atoms: _245  and  _246
REMARK  106  A    between atoms: _245  and  _248
REMARK  107  A    between atoms: _248  and  _249
REMARK  108  A    between atoms: _253  and  MN_472
REMARK  109  A    between atoms: _255  and  _256
REMARK  110  A    between atoms: _261  and  _263
REMARK  111  A    between atoms: _263  and  _264
REMARK  112  A    between atoms: _263  and  _266
REMARK  113  A    between atoms: _266  and  _267
REMARK  114  A    between atoms: _267  and  _268
REMARK  115  A    between atoms: _273  and  _275
REMARK  116  A    between atoms: _275  and  _276
REMARK  117  A    between atoms: _275  and  _278
REMARK  118  A    between atoms: _278  and  _279
REMARK  119  A    between atoms: _279  and  _280
REMARK  120  A    between atoms: _280  and  _281
REMARK  121  A    between atoms: _290  and  _292
REMARK  122  A    between atoms: _292  and  _293
REMARK  123  A    between atoms: _292  and  _295
REMARK  124  A    between atoms: _295  and  _296
REMARK  125  A    between atoms: _296  and  _297
REMARK  126  A    between atoms: _297  and  _298
REMARK  127  A    between atoms: _307  and  _309
REMARK  128  A    between atoms: _309  and  _310
REMARK  129  A    between atoms: _309  and  _312
REMARK  130  A    between atoms: _312  and  _313
REMARK  131  A    between atoms: _318  and  _319
REMARK  132  A    between atoms: _321  and  _323
REMARK  133  A    between atoms: _323  and  _324
REMARK  134  A    between atoms: _323  and  _326
REMARK  135  A    between atoms: _326  and  _327
REMARK  136  A    between atoms: _327  and  _328
REMARK  137  A    between atoms: _328  and  _330
REMARK  138  A    between atoms: _330  and  MG_473
REMARK  139  A    between atoms: _331  and  _333
REMARK  140  A    between atoms: _333  and  _334
REMARK  141  A    between atoms: _333  and  _336
REMARK  142  A    between atoms: _336  and  _337
REMARK  143  A    between atoms: _343  and  _345
REMARK  144  A    between atoms: _345  and  _346
REMARK  145  A    between atoms: _345  and  _348
REMARK  146  A    between atoms: _348  and  _349
REMARK  147  A    between atoms: _354  and  _355
REMARK  148  A    between atoms: _357  and  _359
REMARK  149  A    between atoms: _369  and  _372
REMARK  150  A    between atoms: _372  and  _373
REMARK  151  A    between atoms: _380  and  _381
REMARK  152  A    between atoms: _388  and  _390
REMARK  153  A    between atoms: _390  and  _391
REMARK  154  A    between atoms: _390  and  _393
REMARK  155  A    between atoms: _396  and  _398
REMARK  156  A    between atoms: _398  and  _399
REMARK  157  A    between atoms: _398  and  _401
REMARK  158  A    between atoms: _404  and  _405
REMARK  159  A    between atoms: _410  and  _412
REMARK  160  A    between atoms: _412  and  _413
REMARK  161  A    between atoms: _412  and  _415
REMARK  162  A    between atoms: _415  and  _416
REMARK  163  A    between atoms: _416  and  _417
REMARK  164  A    between atoms: _420  and  _422
REMARK  165  A    between atoms: _422  and  _423
REMARK  166  A    between atoms: _422  and  _425
REMARK  167  A    between atoms: _425  and  _426
REMARK  168  A    between atoms: _429  and  _430
REMARK  169  A    between atoms: _435  and  _437
REMARK  170  A    between atoms: _437  and  _438
REMARK  171  A    between atoms: _437  and  _440
REMARK  172  A    between atoms: _440  and  _441
REMARK  173  A    between atoms: _451  and  _453
REMARK  174  A    between atoms: _453  and  _454
REMARK  175  A    between atoms: _453  and  _456
REMARK  176  A    between atoms: _456  and  _457
REMARK  177  A    between atoms: _457  and  _458
REMARK  178  A    between atoms: _460  and  _462
REMARK  179  A    between atoms: _462  and  _463
REMARK  180  A    between atoms: _462  and  _465
REMARK  181  A    between atoms: _465  and  _466
REMARK  182  A    between atoms: _466  and  _467
REMARK                            x       y       z     vdW  Elec       q    Type
REMARK                         _______ _______ _______ _____ _____    ______ ____
ROOT
ATOM      1  O   HOH     1     -10.760   1.773  17.785  0.00  0.00    +0.000 OA
ENDROOT
TORSDOF 0
REMARK  Name = ../refined-set-2016/2vnp/2vnp_pocket.pdb
REMARK  182 active torsions:
REMARK  status: ('A' for Active; 'I' for Inactive)
REMARK    1  A    between atoms: _1  and  _5
REMARK    2  A    between atoms: _5  and  _6
REMARK    3  A    between atoms: _5  and  _8
REMARK    4  A    between atoms: _8  and  _9
REMARK    5  A    between atoms: _9  and  _10
REMARK    6  A    between atoms: _13  and  _15
REMARK    7  A    between atoms: _15  and  _16
REMARK    8  A    between atoms: _15  and  _18
REMARK    9  A    between atoms: _18  and  _19
REMARK   10  A    between atoms: _24  and  _26
REMARK   11  A    between atoms: _26  and  _27
REMARK   12  A    between atoms: _26  and  _29
REMARK   13  A    between atoms: _32  and  _34
REMARK   14  A    between atoms: _34  and  _35
REMARK   15  A    between atoms: _34  and  _37
REMARK   16  A    between atoms: _37  and  _38
REMARK   17  A    between atoms: _38  and  _39
REMARK   18  A    between atoms: _39  and  _40
REMARK   19  A    between atoms: _40  and  _41
REMARK   20  A    between atoms: _45  and  _47
REMARK   21  A    between atoms: _47  and  _48
REMARK   22  A    between atoms: _47  and  _50
REMARK   23  A    between atoms: _50  and  _51
REMARK   24  A    between atoms: _56  and  _57
REMARK   25  A    between atoms: _59  and  _61
REMARK   26  A    between atoms: _61  and  _62
REMARK   27  A    between atoms: _61  and  _64
REMARK   28  A    between atoms: _64  and  _65
REMARK   29  A    between atoms: _69  and  MN_472
REMARK   30  A    between atoms: _70  and  _72
REMARK   31  A    between atoms: _72  and  _73
REMARK   32  A    between atoms: _72  and  _75
REMARK   33  A    between atoms: _75  and  _76
REMARK   34  A    between atoms: _80  and  MN_472
REMARK   35  A    between atoms: _81  and  _83
REMARK   36  A    between atoms: _83  and  _84
REMARK   37  A    between atoms: _83  and  _86
REMARK   38  A    between atoms: _86  and  _87
REMARK   39  A    between atoms: _90  and  _92
REMARK   40  A    between atoms: _92  and  _93
REMARK   41  A    between atoms: _96  and  _98
REMARK   42  A    between atoms: _98  and  _99
REMARK   43  A    between atoms: _98  and  _101
REMARK   44  A    between atoms: _101  and  _102
REMARK   45  A    between atoms: _108  and  _110
REMARK   46  A    between atoms: _110  and  _111
REMARK   47  A    between atoms: _110  and  _113
REMARK   48  A    between atoms: _113  and  _114
REMARK   49  A    between atoms: _116  and  _118
REMARK   50  A    between atoms: _118  and  _119
REMARK   51  A    between atoms: _118  and  _121
REMARK   52  A    between atoms: _121  and  _122
REMARK   53  A    between atoms: _124  and  _126
REMARK   54  A    between atoms: _126  and  _127
REMARK   55  A    between atoms: _126  and  _129
REMARK   56  A    between atoms: _129  and  _130
REMARK   57  A    between atoms: _130  and  _131
REMARK   58  A    between atoms: _131  and  _132
REMARK   59  A    between atoms: _141  and  _143
REMARK   60  A    between atoms: _143  and  _144
REMARK   61  A    between atoms: _147  and  _149
REMARK   62  A    between atoms: _149  and  _150
REMARK   63  A    between atoms: _149  and  _152
REMARK   64  A    between atoms: _152  and  _153
REMARK   65  A    between atoms: _153  and  _154
REMARK   66  A    between atoms: _154  and  _155
REMARK   67  A    between atoms: _155  and  _156
REMARK   68  A    between atoms: _160  and  _162
REMARK   69  A    between atoms: _162  and  _163
REMARK   70  A    between atoms: _162  and  _165
REMARK   71  A    between atoms: _165  and  _166
REMARK   72  A    between atoms: _166  and  _167
REMARK   73  A    between atoms: _167  and  _168
REMARK   74  A    between atoms: _168  and  _169
REMARK   75  A    between atoms: _173  and  _175
REMARK   76  A    between atoms: _175  and  _176
REMARK   77  A    between atoms: _179  and  _181
REMARK   78  A    between atoms: _181  and  _182
REMARK   79  A    between atoms: _181  and  _184
REMARK   80  A    between atoms: _184  and  _185
REMARK   81  A    between atoms: _195  and  _197
REMARK   82  A    between atoms: _197  and  _198
REMARK   83  A    between atoms: _197  and  _200
REMARK   84  A    between atoms: _200  and  _201
REMARK   85  A    between atoms: _204  and  _206
REMARK   86  A    between atoms: _206  and  _207
REMARK   87  A    between atoms: _206  and  _209
REMARK   88  A    between atoms: _209  and  _210
REMARK   89  A    between atoms: _215  and  _217
REMARK   90  A    between atoms: _217  and  _218
REMARK   91  A    between atoms: _217  and  _220
REMARK   92  A    between atoms: _220  and  _221
REMARK   93  A    between atoms: _223  and  _225
REMARK   94  A    between atoms: _225  and  _226
REMARK   95  A    between atoms: _225  and  _228
REMARK   96  A    between atoms: _231  and  _233
REMARK   97  A    between atoms: _233  and  _234
REMARK   98  A    between atoms: _233  and  _236
REMARK   99  A    between atoms: _234  and  _235
REMARK  100  A    between atoms: _234  and  _238
REMARK  101  A    between atoms: _235  and  MG_473
REMARK  102  A    between atoms: _238  and  _240
REMARK  103  A    between atoms: _240  and  _241
REMARK  104  A    between atoms: _243  and  _245
REMARK  105  A    between atoms: _245  and  _246
REMARK  106  A    between atoms: _245  and  _248
REMARK  107  A    between atoms: _248  and  _249
REMARK  108  A    between atoms: _253  and  MN_472
REMARK  109  A    between atoms: _255  and  _256
REMARK  110  A    between atoms: _261  and  _263
REMARK  111  A    between atoms: _263  and  _264
REMARK  112  A    between atoms: _263  and  _266
REMARK  113  A    between atoms: _266  and  _267
REMARK  114  A    between atoms: _267  and  _268
REMARK  115  A    between atoms: _273  and  _275
REMARK  116  A    between atoms: _275  and  _276
REMARK  117  A    between atoms: _275  and  _278
REMARK  118  A    between atoms: _278  and  _279
REMARK  119  A    between atoms: _279  and  _280
REMARK  120  A    between atoms: _280  and  _281
REMARK  121  A    between atoms: _290  and  _292
REMARK  122  A    between atoms: _292  and  _293
REMARK  123  A    between atoms: _292  and  _295
REMARK  124  A    between atoms: _295  and  _296
REMARK  125  A    between atoms: _296  and  _297
REMARK  126  A    between atoms: _297  and  _298
REMARK  127  A    between atoms: _307  and  _309
REMARK  128  A    between atoms: _309  and  _310
REMARK  129  A    between atoms: _309  and  _312
REMARK  130  A    between atoms: _312  and  _313
REMARK  131  A    between atoms: _318  and  _319
REMARK  132  A    between atoms: _321  and  _323
REMARK  133  A    between atoms: _323  and  _324
REMARK  134  A    between atoms: _323  and  _326
REMARK  135  A    between atoms: _326  and  _327
REMARK  136  A    between atoms: _327  and  _328
REMARK  137  A    between atoms: _328  and  _330
REMARK  138  A    between atoms: _330  and  MG_473
REMARK  139  A    between atoms: _331  and  _333
REMARK  140  A    between atoms: _333  and  _334
REMARK  141  A    between atoms: _333  and  _336
REMARK  142  A    between atoms: _336  and  _337
REMARK  143  A    between atoms: _343  and  _345
REMARK  144  A    between atoms: _345  and  _346
REMARK  145  A    between atoms: _345  and  _348
REMARK  146  A    between atoms: _348  and  _349
REMARK  147  A    between atoms: _354  and  _355
REMARK  148  A    between atoms: _357  and  _359
REMARK  149  A    between atoms: _369  and  _372
REMARK  150  A    between atoms: _372  and  _373
REMARK  151  A    between atoms: _380  and  _381
REMARK  152  A    between atoms: _388  and  _390
REMARK  153  A    between atoms: _390  and  _391
REMARK  154  A    between atoms: _390  and  _393
REMARK  155  A    between atoms: _396  and  _398
REMARK  156  A    between atoms: _398  and  _399
REMARK  157  A    between atoms: _398  and  _401
REMARK  158  A    between atoms: _404  and  _405
REMARK  159  A    between atoms: _410  and  _412
REMARK  160  A    between atoms: _412  and  _413
REMARK  161  A    between atoms: _412  and  _415
REMARK  162  A    between atoms: _415  and  _416
REMARK  163  A    between atoms: _416  and  _417
REMARK  164  A    between atoms: _420  and  _422
REMARK  165  A    between atoms: _422  and  _423
REMARK  166  A    between atoms: _422  and  _425
REMARK  167  A    between atoms: _425  and  _426
REMARK  168  A    between atoms: _429  and  _430
REMARK  169  A    between atoms: _435  and  _437
REMARK  170  A    between atoms: _437  and  _438
REMARK  171  A    between atoms: _437  and  _440
REMARK  172  A    between atoms: _440  and  _441
REMARK  173  A    between atoms: _451  and  _453
REMARK  174  A    between atoms: _453  and  _454
REMARK  175  A    between atoms: _453  and  _456
REMARK  176  A    between atoms: _456  and  _457
REMARK  177  A    between atoms: _457  and  _458
REMARK  178  A    between atoms: _460  and  _462
REMARK  179  A    between atoms: _462  and  _463
REMARK  180  A    between atoms: _462  and  _465
REMARK  181  A    between atoms: _465  and  _466
REMARK  182  A    between atoms: _466  and  _467
REMARK                            x       y       z     vdW  Elec       q    Type
REMARK                         _______ _______ _______ _____ _____    ______ ____
ROOT
ATOM      1  O   HOH     1      -8.013  -0.249  19.045  0.00  0.00    +0.000 OA
ENDROOT
TORSDOF 0
REMARK  Name = ../refined-set-2016/2vnp/2vnp_pocket.pdb
REMARK  182 active torsions:
REMARK  status: ('A' for Active; 'I' for Inactive)
REMARK    1  A    between atoms: _1  and  _5
REMARK    2  A    between atoms: _5  and  _6
REMARK    3  A    between atoms: _5  and  _8
REMARK    4  A    between atoms: _8  and  _9
REMARK    5  A    between atoms: _9  and  _10
REMARK    6  A    between atoms: _13  and  _15
REMARK    7  A    between atoms: _15  and  _16
REMARK    8  A    between atoms: _15  and  _18
REMARK    9  A    between atoms: _18  and  _19
REMARK   10  A    between atoms: _24  and  _26
REMARK   11  A    between atoms: _26  and  _27
REMARK   12  A    between atoms: _26  and  _29
REMARK   13  A    between atoms: _32  and  _34
REMARK   14  A    between atoms: _34  and  _35
REMARK   15  A    between atoms: _34  and  _37
REMARK   16  A    between atoms: _37  and  _38
REMARK   17  A    between atoms: _38  and  _39
REMARK   18  A    between atoms: _39  and  _40
REMARK   19  A    between atoms: _40  and  _41
REMARK   20  A    between atoms: _45  and  _47
REMARK   21  A    between atoms: _47  and  _48
REMARK   22  A    between atoms: _47  and  _50
REMARK   23  A    between atoms: _50  and  _51
REMARK   24  A    between atoms: _56  and  _57
REMARK   25  A    between atoms: _59  and  _61
REMARK   26  A    between atoms: _61  and  _62
REMARK   27  A    between atoms: _61  and  _64
REMARK   28  A    between atoms: _64  and  _65
REMARK   29  A    between atoms: _69  and  MN_472
REMARK   30  A    between atoms: _70  and  _72
REMARK   31  A    between atoms: _72  and  _73
REMARK   32  A    between atoms: _72  and  _75
REMARK   33  A    between atoms: _75  and  _76
REMARK   34  A    between atoms: _80  and  MN_472
REMARK   35  A    between atoms: _81  and  _83
REMARK   36  A    between atoms: _83  and  _84
REMARK   37  A    between atoms: _83  and  _86
REMARK   38  A    between atoms: _86  and  _87
REMARK   39  A    between atoms: _90  and  _92
REMARK   40  A    between atoms: _92  and  _93
REMARK   41  A    between atoms: _96  and  _98
REMARK   42  A    between atoms: _98  and  _99
REMARK   43  A    between atoms: _98  and  _101
REMARK   44  A    between atoms: _101  and  _102
REMARK   45  A    between atoms: _108  and  _110
REMARK   46  A    between atoms: _110  and  _111
REMARK   47  A    between atoms: _110  and  _113
REMARK   48  A    between atoms: _113  and  _114
REMARK   49  A    between atoms: _116  and  _118
REMARK   50  A    between atoms: _118  and  _119
REMARK   51  A    between atoms: _118  and  _121
REMARK   52  A    between atoms: _121  and  _122
REMARK   53  A    between atoms: _124  and  _126
REMARK   54  A    between atoms: _126  and  _127
REMARK   55  A    between atoms: _126  and  _129
REMARK   56  A    between atoms: _129  and  _130
REMARK   57  A    between atoms: _130  and  _131
REMARK   58  A    between atoms: _131  and  _132
REMARK   59  A    between atoms: _141  and  _143
REMARK   60  A    between atoms: _143  and  _144
REMARK   61  A    between atoms: _147  and  _149
REMARK   62  A    between atoms: _149  and  _150
REMARK   63  A    between atoms: _149  and  _152
REMARK   64  A    between atoms: _152  and  _153
REMARK   65  A    between atoms: _153  and  _154
REMARK   66  A    between atoms: _154  and  _155
REMARK   67  A    between atoms: _155  and  _156
REMARK   68  A    between atoms: _160  and  _162
REMARK   69  A    between atoms: _162  and  _163
REMARK   70  A    between atoms: _162  and  _165
REMARK   71  A    between atoms: _165  and  _166
REMARK   72  A    between atoms: _166  and  _167
REMARK   73  A    between atoms: _167  and  _168
REMARK   74  A    between atoms: _168  and  _169
REMARK   75  A    between atoms: _173  and  _175
REMARK   76  A    between atoms: _175  and  _176
REMARK   77  A    between atoms: _179  and  _181
REMARK   78  A    between atoms: _181  and  _182
REMARK   79  A    between atoms: _181  and  _184
REMARK   80  A    between atoms: _184  and  _185
REMARK   81  A    between atoms: _195  and  _197
REMARK   82  A    between atoms: _197  and  _198
REMARK   83  A    between atoms: _197  and  _200
REMARK   84  A    between atoms: _200  and  _201
REMARK   85  A    between atoms: _204  and  _206
REMARK   86  A    between atoms: _206  and  _207
REMARK   87  A    between atoms: _206  and  _209
REMARK   88  A    between atoms: _209  and  _210
REMARK   89  A    between atoms: _215  and  _217
REMARK   90  A    between atoms: _217  and  _218
REMARK   91  A    between atoms: _217  and  _220
REMARK   92  A    between atoms: _220  and  _221
REMARK   93  A    between atoms: _223  and  _225
REMARK   94  A    between atoms: _225  and  _226
REMARK   95  A    between atoms: _225  and  _228
REMARK   96  A    between atoms: _231  and  _233
REMARK   97  A    between atoms: _233  and  _234
REMARK   98  A    between atoms: _233  and  _236
REMARK   99  A    between atoms: _234  and  _235
REMARK  100  A    between atoms: _234  and  _238
REMARK  101  A    between atoms: _235  and  MG_473
REMARK  102  A    between atoms: _238  and  _240
REMARK  103  A    between atoms: _240  and  _241
REMARK  104  A    between atoms: _243  and  _245
REMARK  105  A    between atoms: _245  and  _246
REMARK  106  A    between atoms: _245  and  _248
REMARK  107  A    between atoms: _248  and  _249
REMARK  108  A    between atoms: _253  and  MN_472
REMARK  109  A    between atoms: _255  and  _256
REMARK  110  A    between atoms: _261  and  _263
REMARK  111  A    between atoms: _263  and  _264
REMARK  112  A    between atoms: _263  and  _266
REMARK  113  A    between atoms: _266  and  _267
REMARK  114  A    between atoms: _267  and  _268
REMARK  115  A    between atoms: _273  and  _275
REMARK  116  A    between atoms: _275  and  _276
REMARK  117  A    between atoms: _275  and  _278
REMARK  118  A    between atoms: _278  and  _279
REMARK  119  A    between atoms: _279  and  _280
REMARK  120  A    between atoms: _280  and  _281
REMARK  121  A    between atoms: _290  and  _292
REMARK  122  A    between atoms: _292  and  _293
REMARK  123  A    between atoms: _292  and  _295
REMARK  124  A    between atoms: _295  and  _296
REMARK  125  A    between atoms: _296  and  _297
REMARK  126  A    between atoms: _297  and  _298
REMARK  127  A    between atoms: _307  and  _309
REMARK  128  A    between atoms: _309  and  _310
REMARK  129  A    between atoms: _309  and  _312
REMARK  130  A    between atoms: _312  and  _313
REMARK  131  A    between atoms: _318  and  _319
REMARK  132  A    between atoms: _321  and  _323
REMARK  133  A    between atoms: _323  and  _324
REMARK  134  A    between atoms: _323  and  _326
REMARK  135  A    between atoms: _326  and  _327
REMARK  136  A    between atoms: _327  and  _328
REMARK  137  A    between atoms: _328  and  _330
REMARK  138  A    between atoms: _330  and  MG_473
REMARK  139  A    between atoms: _331  and  _333
REMARK  140  A    between atoms: _333  and  _334
REMARK  141  A    between atoms: _333  and  _336
REMARK  142  A    between atoms: _336  and  _337
REMARK  143  A    between atoms: _343  and  _345
REMARK  144  A    between atoms: _345  and  _346
REMARK  145  A    between atoms: _345  and  _348
REMARK  146  A    between atoms: _348  and  _349
REMARK  147  A    between atoms: _354  and  _355
REMARK  148  A    between atoms: _357  and  _359
REMARK  149  A    between atoms: _369  and  _372
REMARK  150  A    between atoms: _372  and  _373
REMARK  151  A    between atoms: _380  and  _381
REMARK  152  A    between atoms: _388  and  _390
REMARK  153  A    between atoms: _390  and  _391
REMARK  154  A    between atoms: _390  and  _393
REMARK  155  A    between atoms: _396  and  _398
REMARK  156  A    between atoms: _398  and  _399
REMARK  157  A    between atoms: _398  and  _401
REMARK  158  A    between atoms: _404  and  _405
REMARK  159  A    between atoms: _410  and  _412
REMARK  160  A    between atoms: _412  and  _413
REMARK  161  A    between atoms: _412  and  _415
REMARK  162  A    between atoms: _415  and  _416
REMARK  163  A    between atoms: _416  and  _417
REMARK  164  A    between atoms: _420  and  _422
REMARK  165  A    between atoms: _422  and  _423
REMARK  166  A    between atoms: _422  and  _425
REMARK  167  A    between atoms: _425  and  _426
REMARK  168  A    between atoms: _429  and  _430
REMARK  169  A    between atoms: _435  and  _437
REMARK  170  A    between atoms: _437  and  _438
REMARK  171  A    between atoms: _437  and  _440
REMARK  172  A    between atoms: _440  and  _441
REMARK  173  A    between atoms: _451  and  _453
REMARK  174  A    between atoms: _453  and  _454
REMARK  175  A    between atoms: _453  and  _456
REMARK  176  A    between atoms: _456  and  _457
REMARK  177  A    between atoms: _457  and  _458
REMARK  178  A    between atoms: _460  and  _462
REMARK  179  A    between atoms: _462  and  _463
REMARK  180  A    between atoms: _462  and  _465
REMARK  181  A    between atoms: _465  and  _466
REMARK  182  A    between atoms: _466  and  _467
REMARK                            x       y       z     vdW  Elec       q    Type
REMARK                         _______ _______ _______ _____ _____    ______ ____
ROOT
ATOM      1  O   HOH     1      -7.517   0.181  15.320  0.00  0.00    +0.000 OA
ENDROOT
TORSDOF 0
REMARK  Name = ../refined-set-2016/2vnp/2vnp_pocket.pdb
REMARK  182 active torsions:
REMARK  status: ('A' for Active; 'I' for Inactive)
REMARK    1  A    between atoms: _1  and  _5
REMARK    2  A    between atoms: _5  and  _6
REMARK    3  A    between atoms: _5  and  _8
REMARK    4  A    between atoms: _8  and  _9
REMARK    5  A    between atoms: _9  and  _10
REMARK    6  A    between atoms: _13  and  _15
REMARK    7  A    between atoms: _15  and  _16
REMARK    8  A    between atoms: _15  and  _18
REMARK    9  A    between atoms: _18  and  _19
REMARK   10  A    between atoms: _24  and  _26
REMARK   11  A    between atoms: _26  and  _27
REMARK   12  A    between atoms: _26  and  _29
REMARK   13  A    between atoms: _32  and  _34
REMARK   14  A    between atoms: _34  and  _35
REMARK   15  A    between atoms: _34  and  _37
REMARK   16  A    between atoms: _37  and  _38
REMARK   17  A    between atoms: _38  and  _39
REMARK   18  A    between atoms: _39  and  _40
REMARK   19  A    between atoms: _40  and  _41
REMARK   20  A    between atoms: _45  and  _47
REMARK   21  A    between atoms: _47  and  _48
REMARK   22  A    between atoms: _47  and  _50
REMARK   23  A    between atoms: _50  and  _51
REMARK   24  A    between atoms: _56  and  _57
REMARK   25  A    between atoms: _59  and  _61
REMARK   26  A    between atoms: _61  and  _62
REMARK   27  A    between atoms: _61  and  _64
REMARK   28  A    between atoms: _64  and  _65
REMARK   29  A    between atoms: _69  and  MN_472
REMARK   30  A    between atoms: _70  and  _72
REMARK   31  A    between atoms: _72  and  _73
REMARK   32  A    between atoms: _72  and  _75
REMARK   33  A    between atoms: _75  and  _76
REMARK   34  A    between atoms: _80  and  MN_472
REMARK   35  A    between atoms: _81  and  _83
REMARK   36  A    between atoms: _83  and  _84
REMARK   37  A    between atoms: _83  and  _86
REMARK   38  A    between atoms: _86  and  _87
REMARK   39  A    between atoms: _90  and  _92
REMARK   40  A    between atoms: _92  and  _93
REMARK   41  A    between atoms: _96  and  _98
REMARK   42  A    between atoms: _98  and  _99
REMARK   43  A    between atoms: _98  and  _101
REMARK   44  A    between atoms: _101  and  _102
REMARK   45  A    between atoms: _108  and  _110
REMARK   46  A    between atoms: _110  and  _111
REMARK   47  A    between atoms: _110  and  _113
REMARK   48  A    between atoms: _113  and  _114
REMARK   49  A    between atoms: _116  and  _118
REMARK   50  A    between atoms: _118  and  _119
REMARK   51  A    between atoms: _118  and  _121
REMARK   52  A    between atoms: _121  and  _122
REMARK   53  A    between atoms: _124  and  _126
REMARK   54  A    between atoms: _126  and  _127
REMARK   55  A    between atoms: _126  and  _129
REMARK   56  A    between atoms: _129  and  _130
REMARK   57  A    between atoms: _130  and  _131
REMARK   58  A    between atoms: _131  and  _132
REMARK   59  A    between atoms: _141  and  _143
REMARK   60  A    between atoms: _143  and  _144
REMARK   61  A    between atoms: _147  and  _149
REMARK   62  A    between atoms: _149  and  _150
REMARK   63  A    between atoms: _149  and  _152
REMARK   64  A    between atoms: _152  and  _153
REMARK   65  A    between atoms: _153  and  _154
REMARK   66  A    between atoms: _154  and  _155
REMARK   67  A    between atoms: _155  and  _156
REMARK   68  A    between atoms: _160  and  _162
REMARK   69  A    between atoms: _162  and  _163
REMARK   70  A    between atoms: _162  and  _165
REMARK   71  A    between atoms: _165  and  _166
REMARK   72  A    between atoms: _166  and  _167
REMARK   73  A    between atoms: _167  and  _168
REMARK   74  A    between atoms: _168  and  _169
REMARK   75  A    between atoms: _173  and  _175
REMARK   76  A    between atoms: _175  and  _176
REMARK   77  A    between atoms: _179  and  _181
REMARK   78  A    between atoms: _181  and  _182
REMARK   79  A    between atoms: _181  and  _184
REMARK   80  A    between atoms: _184  and  _185
REMARK   81  A    between atoms: _195  and  _197
REMARK   82  A    between atoms: _197  and  _198
REMARK   83  A    between atoms: _197  and  _200
REMARK   84  A    between atoms: _200  and  _201
REMARK   85  A    between atoms: _204  and  _206
REMARK   86  A    between atoms: _206  and  _207
REMARK   87  A    between atoms: _206  and  _209
REMARK   88  A    between atoms: _209  and  _210
REMARK   89  A    between atoms: _215  and  _217
REMARK   90  A    between atoms: _217  and  _218
REMARK   91  A    between atoms: _217  and  _220
REMARK   92  A    between atoms: _220  and  _221
REMARK   93  A    between atoms: _223  and  _225
REMARK   94  A    between atoms: _225  and  _226
REMARK   95  A    between atoms: _225  and  _228
REMARK   96  A    between atoms: _231  and  _233
REMARK   97  A    between atoms: _233  and  _234
REMARK   98  A    between atoms: _233  and  _236
REMARK   99  A    between atoms: _234  and  _235
REMARK  100  A    between atoms: _234  and  _238
REMARK  101  A    between atoms: _235  and  MG_473
REMARK  102  A    between atoms: _238  and  _240
REMARK  103  A    between atoms: _240  and  _241
REMARK  104  A    between atoms: _243  and  _245
REMARK  105  A    between atoms: _245  and  _246
REMARK  106  A    between atoms: _245  and  _248
REMARK  107  A    between atoms: _248  and  _249
REMARK  108  A    between atoms: _253  and  MN_472
REMARK  109  A    between atoms: _255  and  _256
REMARK  110  A    between atoms: _261  and  _263
REMARK  111  A    between atoms: _263  and  _264
REMARK  112  A    between atoms: _263  and  _266
REMARK  113  A    between atoms: _266  and  _267
REMARK  114  A    between atoms: _267  and  _268
REMARK  115  A    between atoms: _273  and  _275
REMARK  116  A    between atoms: _275  and  _276
REMARK  117  A    between atoms: _275  and  _278
REMARK  118  A    between atoms: _278  and  _279
REMARK  119  A    between atoms: _279  and  _280
REMARK  120  A    between atoms: _280  and  _281
REMARK  121  A    between atoms: _290  and  _292
REMARK  122  A    between atoms: _292  and  _293
REMARK  123  A    between atoms: _292  and  _295
REMARK  124  A    between atoms: _295  and  _296
REMARK  125  A    between atoms: _296  and  _297
REMARK  126  A    between atoms: _297  and  _298
REMARK  127  A    between atoms: _307  and  _309
REMARK  128  A    between atoms: _309  and  _310
REMARK  129  A    between atoms: _309  and  _312
REMARK  130  A    between atoms: _312  and  _313
REMARK  131  A    between atoms: _318  and  _319
REMARK  132  A    between atoms: _321  and  _323
REMARK  133  A    between atoms: _323  and  _324
REMARK  134  A    between atoms: _323  and  _326
REMARK  135  A    between atoms: _326  and  _327
REMARK  136  A    between atoms: _327  and  _328
REMARK  137  A    between atoms: _328  and  _330
REMARK  138  A    between atoms: _330  and  MG_473
REMARK  139  A    between atoms: _331  and  _333
REMARK  140  A    between atoms: _333  and  _334
REMARK  141  A    between atoms: _333  and  _336
REMARK  142  A    between atoms: _336  and  _337
REMARK  143  A    between atoms: _343  and  _345
REMARK  144  A    between atoms: _345  and  _346
REMARK  145  A    between atoms: _345  and  _348
REMARK  146  A    between atoms: _348  and  _349
REMARK  147  A    between atoms: _354  and  _355
REMARK  148  A    between atoms: _357  and  _359
REMARK  149  A    between atoms: _369  and  _372
REMARK  150  A    between atoms: _372  and  _373
REMARK  151  A    between atoms: _380  and  _381
REMARK  152  A    between atoms: _388  and  _390
REMARK  153  A    between atoms: _390  and  _391
REMARK  154  A    between atoms: _390  and  _393
REMARK  155  A    between atoms: _396  and  _398
REMARK  156  A    between atoms: _398  and  _399
REMARK  157  A    between atoms: _398  and  _401
REMARK  158  A    between atoms: _404  and  _405
REMARK  159  A    between atoms: _410  and  _412
REMARK  160  A    between atoms: _412  and  _413
REMARK  161  A    between atoms: _412  and  _415
REMARK  162  A    between atoms: _415  and  _416
REMARK  163  A    between atoms: _416  and  _417
REMARK  164  A    between atoms: _420  and  _422
REMARK  165  A    between atoms: _422  and  _423
REMARK  166  A    between atoms: _422  and  _425
REMARK  167  A    between atoms: _425  and  _426
REMARK  168  A    between atoms: _429  and  _430
REMARK  169  A    between atoms: _435  and  _437
REMARK  170  A    between atoms: _437  and  _438
REMARK  171  A    between atoms: _437  and  _440
REMARK  172  A    between atoms: _440  and  _441
REMARK  173  A    between atoms: _451  and  _453
REMARK  174  A    between atoms: _453  and  _454
REMARK  175  A    between atoms: _453  and  _456
REMARK  176  A    between atoms: _456  and  _457
REMARK  177  A    between atoms: _457  and  _458
REMARK  178  A    between atoms: _460  and  _462
REMARK  179  A    between atoms: _462  and  _463
REMARK  180  A    between atoms: _462  and  _465
REMARK  181  A    between atoms: _465  and  _466
REMARK  182  A    between atoms: _466  and  _467
REMARK                            x       y       z     vdW  Elec       q    Type
REMARK                         _______ _______ _______ _____ _____    ______ ____
ROOT
ATOM      1  O   HOH     1      -5.965   1.083  17.256  0.00  0.00    +0.000 OA
ENDROOT
TORSDOF 0
REMARK  Name = ../refined-set-2016/2vnp/2vnp_pocket.pdb
REMARK  182 active torsions:
REMARK  status: ('A' for Active; 'I' for Inactive)
REMARK    1  A    between atoms: _1  and  _5
REMARK    2  A    between atoms: _5  and  _6
REMARK    3  A    between atoms: _5  and  _8
REMARK    4  A    between atoms: _8  and  _9
REMARK    5  A    between atoms: _9  and  _10
REMARK    6  A    between atoms: _13  and  _15
REMARK    7  A    between atoms: _15  and  _16
REMARK    8  A    between atoms: _15  and  _18
REMARK    9  A    between atoms: _18  and  _19
REMARK   10  A    between atoms: _24  and  _26
REMARK   11  A    between atoms: _26  and  _27
REMARK   12  A    between atoms: _26  and  _29
REMARK   13  A    between atoms: _32  and  _34
REMARK   14  A    between atoms: _34  and  _35
REMARK   15  A    between atoms: _34  and  _37
REMARK   16  A    between atoms: _37  and  _38
REMARK   17  A    between atoms: _38  and  _39
REMARK   18  A    between atoms: _39  and  _40
REMARK   19  A    between atoms: _40  and  _41
REMARK   20  A    between atoms: _45  and  _47
REMARK   21  A    between atoms: _47  and  _48
REMARK   22  A    between atoms: _47  and  _50
REMARK   23  A    between atoms: _50  and  _51
REMARK   24  A    between atoms: _56  and  _57
REMARK   25  A    between atoms: _59  and  _61
REMARK   26  A    between atoms: _61  and  _62
REMARK   27  A    between atoms: _61  and  _64
REMARK   28  A    between atoms: _64  and  _65
REMARK   29  A    between atoms: _69  and  MN_472
REMARK   30  A    between atoms: _70  and  _72
REMARK   31  A    between atoms: _72  and  _73
REMARK   32  A    between atoms: _72  and  _75
REMARK   33  A    between atoms: _75  and  _76
REMARK   34  A    between atoms: _80  and  MN_472
REMARK   35  A    between atoms: _81  and  _83
REMARK   36  A    between atoms: _83  and  _84
REMARK   37  A    between atoms: _83  and  _86
REMARK   38  A    between atoms: _86  and  _87
REMARK   39  A    between atoms: _90  and  _92
REMARK   40  A    between atoms: _92  and  _93
REMARK   41  A    between atoms: _96  and  _98
REMARK   42  A    between atoms: _98  and  _99
REMARK   43  A    between atoms: _98  and  _101
REMARK   44  A    between atoms: _101  and  _102
REMARK   45  A    between atoms: _108  and  _110
REMARK   46  A    between atoms: _110  and  _111
REMARK   47  A    between atoms: _110  and  _113
REMARK   48  A    between atoms: _113  and  _114
REMARK   49  A    between atoms: _116  and  _118
REMARK   50  A    between atoms: _118  and  _119
REMARK   51  A    between atoms: _118  and  _121
REMARK   52  A    between atoms: _121  and  _122
REMARK   53  A    between atoms: _124  and  _126
REMARK   54  A    between atoms: _126  and  _127
REMARK   55  A    between atoms: _126  and  _129
REMARK   56  A    between atoms: _129  and  _130
REMARK   57  A    between atoms: _130  and  _131
REMARK   58  A    between atoms: _131  and  _132
REMARK   59  A    between atoms: _141  and  _143
REMARK   60  A    between atoms: _143  and  _144
REMARK   61  A    between atoms: _147  and  _149
REMARK   62  A    between atoms: _149  and  _150
REMARK   63  A    between atoms: _149  and  _152
REMARK   64  A    between atoms: _152  and  _153
REMARK   65  A    between atoms: _153  and  _154
REMARK   66  A    between atoms: _154  and  _155
REMARK   67  A    between atoms: _155  and  _156
REMARK   68  A    between atoms: _160  and  _162
REMARK   69  A    between atoms: _162  and  _163
REMARK   70  A    between atoms: _162  and  _165
REMARK   71  A    between atoms: _165  and  _166
REMARK   72  A    between atoms: _166  and  _167
REMARK   73  A    between atoms: _167  and  _168
REMARK   74  A    between atoms: _168  and  _169
REMARK   75  A    between atoms: _173  and  _175
REMARK   76  A    between atoms: _175  and  _176
REMARK   77  A    between atoms: _179  and  _181
REMARK   78  A    between atoms: _181  and  _182
REMARK   79  A    between atoms: _181  and  _184
REMARK   80  A    between atoms: _184  and  _185
REMARK   81  A    between atoms: _195  and  _197
REMARK   82  A    between atoms: _197  and  _198
REMARK   83  A    between atoms: _197  and  _200
REMARK   84  A    between atoms: _200  and  _201
REMARK   85  A    between atoms: _204  and  _206
REMARK   86  A    between atoms: _206  and  _207
REMARK   87  A    between atoms: _206  and  _209
REMARK   88  A    between atoms: _209  and  _210
REMARK   89  A    between atoms: _215  and  _217
REMARK   90  A    between atoms: _217  and  _218
REMARK   91  A    between atoms: _217  and  _220
REMARK   92  A    between atoms: _220  and  _221
REMARK   93  A    between atoms: _223  and  _225
REMARK   94  A    between atoms: _225  and  _226
REMARK   95  A    between atoms: _225  and  _228
REMARK   96  A    between atoms: _231  and  _233
REMARK   97  A    between atoms: _233  and  _234
REMARK   98  A    between atoms: _233  and  _236
REMARK   99  A    between atoms: _234  and  _235
REMARK  100  A    between atoms: _234  and  _238
REMARK  101  A    between atoms: _235  and  MG_473
REMARK  102  A    between atoms: _238  and  _240
REMARK  103  A    between atoms: _240  and  _241
REMARK  104  A    between atoms: _243  and  _245
REMARK  105  A    between atoms: _245  and  _246
REMARK  106  A    between atoms: _245  and  _248
REMARK  107  A    between atoms: _248  and  _249
REMARK  108  A    between atoms: _253  and  MN_472
REMARK  109  A    between atoms: _255  and  _256
REMARK  110  A    between atoms: _261  and  _263
REMARK  111  A    between atoms: _263  and  _264
REMARK  112  A    between atoms: _263  and  _266
REMARK  113  A    between atoms: _266  and  _267
REMARK  114  A    between atoms: _267  and  _268
REMARK  115  A    between atoms: _273  and  _275
REMARK  116  A    between atoms: _275  and  _276
REMARK  117  A    between atoms: _275  and  _278
REMARK  118  A    between atoms: _278  and  _279
REMARK  119  A    between atoms: _279  and  _280
REMARK  120  A    between atoms: _280  and  _281
REMARK  121  A    between atoms: _290  and  _292
REMARK  122  A    between atoms: _292  and  _293
REMARK  123  A    between atoms: _292  and  _295
REMARK  124  A    between atoms: _295  and  _296
REMARK  125  A    between atoms: _296  and  _297
REMARK  126  A    between atoms: _297  and  _298
REMARK  127  A    between atoms: _307  and  _309
REMARK  128  A    between atoms: _309  and  _310
REMARK  129  A    between atoms: _309  and  _312
REMARK  130  A    between atoms: _312  and  _313
REMARK  131  A    between atoms: _318  and  _319
REMARK  132  A    between atoms: _321  and  _323
REMARK  133  A    between atoms: _323  and  _324
REMARK  134  A    between atoms: _323  and  _326
REMARK  135  A    between atoms: _326  and  _327
REMARK  136  A    between atoms: _327  and  _328
REMARK  137  A    between atoms: _328  and  _330
REMARK  138  A    between atoms: _330  and  MG_473
REMARK  139  A    between atoms: _331  and  _333
REMARK  140  A    between atoms: _333  and  _334
REMARK  141  A    between atoms: _333  and  _336
REMARK  142  A    between atoms: _336  and  _337
REMARK  143  A    between atoms: _343  and  _345
REMARK  144  A    between atoms: _345  and  _346
REMARK  145  A    between atoms: _345  and  _348
REMARK  146  A    between atoms: _348  and  _349
REMARK  147  A    between atoms: _354  and  _355
REMARK  148  A    between atoms: _357  and  _359
REMARK  149  A    between atoms: _369  and  _372
REMARK  150  A    between atoms: _372  and  _373
REMARK  151  A    between atoms: _380  and  _381
REMARK  152  A    between atoms: _388  and  _390
REMARK  153  A    between atoms: _390  and  _391
REMARK  154  A    between atoms: _390  and  _393
REMARK  155  A    between atoms: _396  and  _398
REMARK  156  A    between atoms: _398  and  _399
REMARK  157  A    between atoms: _398  and  _401
REMARK  158  A    between atoms: _404  and  _405
REMARK  159  A    between atoms: _410  and  _412
REMARK  160  A    between atoms: _412  and  _413
REMARK  161  A    between atoms: _412  and  _415
REMARK  162  A    between atoms: _415  and  _416
REMARK  163  A    between atoms: _416  and  _417
REMARK  164  A    between atoms: _420  and  _422
REMARK  165  A    between atoms: _422  and  _423
REMARK  166  A    between atoms: _422  and  _425
REMARK  167  A    between atoms: _425  and  _426
REMARK  168  A    between atoms: _429  and  _430
REMARK  169  A    between atoms: _435  and  _437
REMARK  170  A    between atoms: _437  and  _438
REMARK  171  A    between atoms: _437  and  _440
REMARK  172  A    between atoms: _440  and  _441
REMARK  173  A    between atoms: _451  and  _453
REMARK  174  A    between atoms: _453  and  _454
REMARK  175  A    between atoms: _453  and  _456
REMARK  176  A    between atoms: _456  and  _457
REMARK  177  A    between atoms: _457  and  _458
REMARK  178  A    between atoms: _460  and  _462
REMARK  179  A    between atoms: _462  and  _463
REMARK  180  A    between atoms: _462  and  _465
REMARK  181  A    between atoms: _465  and  _466
REMARK  182  A    between atoms: _466  and  _467
REMARK                            x       y       z     vdW  Elec       q    Type
REMARK                         _______ _______ _______ _____ _____    ______ ____
ROOT
ATOM      1  O   HOH     1      -2.544   1.891  23.629  0.00  0.00    +0.000 OA
ENDROOT
TORSDOF 0
REMARK  Name = ../refined-set-2016/2vnp/2vnp_pocket.pdb
REMARK  182 active torsions:
REMARK  status: ('A' for Active; 'I' for Inactive)
REMARK    1  A    between atoms: _1  and  _5
REMARK    2  A    between atoms: _5  and  _6
REMARK    3  A    between atoms: _5  and  _8
REMARK    4  A    between atoms: _8  and  _9
REMARK    5  A    between atoms: _9  and  _10
REMARK    6  A    between atoms: _13  and  _15
REMARK    7  A    between atoms: _15  and  _16
REMARK    8  A    between atoms: _15  and  _18
REMARK    9  A    between atoms: _18  and  _19
REMARK   10  A    between atoms: _24  and  _26
REMARK   11  A    between atoms: _26  and  _27
REMARK   12  A    between atoms: _26  and  _29
REMARK   13  A    between atoms: _32  and  _34
REMARK   14  A    between atoms: _34  and  _35
REMARK   15  A    between atoms: _34  and  _37
REMARK   16  A    between atoms: _37  and  _38
REMARK   17  A    between atoms: _38  and  _39
REMARK   18  A    between atoms: _39  and  _40
REMARK   19  A    between atoms: _40  and  _41
REMARK   20  A    between atoms: _45  and  _47
REMARK   21  A    between atoms: _47  and  _48
REMARK   22  A    between atoms: _47  and  _50
REMARK   23  A    between atoms: _50  and  _51
REMARK   24  A    between atoms: _56  and  _57
REMARK   25  A    between atoms: _59  and  _61
REMARK   26  A    between atoms: _61  and  _62
REMARK   27  A    between atoms: _61  and  _64
REMARK   28  A    between atoms: _64  and  _65
REMARK   29  A    between atoms: _69  and  MN_472
REMARK   30  A    between atoms: _70  and  _72
REMARK   31  A    between atoms: _72  and  _73
REMARK   32  A    between atoms: _72  and  _75
REMARK   33  A    between atoms: _75  and  _76
REMARK   34  A    between atoms: _80  and  MN_472
REMARK   35  A    between atoms: _81  and  _83
REMARK   36  A    between atoms: _83  and  _84
REMARK   37  A    between atoms: _83  and  _86
REMARK   38  A    between atoms: _86  and  _87
REMARK   39  A    between atoms: _90  and  _92
REMARK   40  A    between atoms: _92  and  _93
REMARK   41  A    between atoms: _96  and  _98
REMARK   42  A    between atoms: _98  and  _99
REMARK   43  A    between atoms: _98  and  _101
REMARK   44  A    between atoms: _101  and  _102
REMARK   45  A    between atoms: _108  and  _110
REMARK   46  A    between atoms: _110  and  _111
REMARK   47  A    between atoms: _110  and  _113
REMARK   48  A    between atoms: _113  and  _114
REMARK   49  A    between atoms: _116  and  _118
REMARK   50  A    between atoms: _118  and  _119
REMARK   51  A    between atoms: _118  and  _121
REMARK   52  A    between atoms: _121  and  _122
REMARK   53  A    between atoms: _124  and  _126
REMARK   54  A    between atoms: _126  and  _127
REMARK   55  A    between atoms: _126  and  _129
REMARK   56  A    between atoms: _129  and  _130
REMARK   57  A    between atoms: _130  and  _131
REMARK   58  A    between atoms: _131  and  _132
REMARK   59  A    between atoms: _141  and  _143
REMARK   60  A    between atoms: _143  and  _144
REMARK   61  A    between atoms: _147  and  _149
REMARK   62  A    between atoms: _149  and  _150
REMARK   63  A    between atoms: _149  and  _152
REMARK   64  A    between atoms: _152  and  _153
REMARK   65  A    between atoms: _153  and  _154
REMARK   66  A    between atoms: _154  and  _155
REMARK   67  A    between atoms: _155  and  _156
REMARK   68  A    between atoms: _160  and  _162
REMARK   69  A    between atoms: _162  and  _163
REMARK   70  A    between atoms: _162  and  _165
REMARK   71  A    between atoms: _165  and  _166
REMARK   72  A    between atoms: _166  and  _167
REMARK   73  A    between atoms: _167  and  _168
REMARK   74  A    between atoms: _168  and  _169
REMARK   75  A    between atoms: _173  and  _175
REMARK   76  A    between atoms: _175  and  _176
REMARK   77  A    between atoms: _179  and  _181
REMARK   78  A    between atoms: _181  and  _182
REMARK   79  A    between atoms: _181  and  _184
REMARK   80  A    between atoms: _184  and  _185
REMARK   81  A    between atoms: _195  and  _197
REMARK   82  A    between atoms: _197  and  _198
REMARK   83  A    between atoms: _197  and  _200
REMARK   84  A    between atoms: _200  and  _201
REMARK   85  A    between atoms: _204  and  _206
REMARK   86  A    between atoms: _206  and  _207
REMARK   87  A    between atoms: _206  and  _209
REMARK   88  A    between atoms: _209  and  _210
REMARK   89  A    between atoms: _215  and  _217
REMARK   90  A    between atoms: _217  and  _218
REMARK   91  A    between atoms: _217  and  _220
REMARK   92  A    between atoms: _220  and  _221
REMARK   93  A    between atoms: _223  and  _225
REMARK   94  A    between atoms: _225  and  _226
REMARK   95  A    between atoms: _225  and  _228
REMARK   96  A    between atoms: _231  and  _233
REMARK   97  A    between atoms: _233  and  _234
REMARK   98  A    between atoms: _233  and  _236
REMARK   99  A    between atoms: _234  and  _235
REMARK  100  A    between atoms: _234  and  _238
REMARK  101  A    between atoms: _235  and  MG_473
REMARK  102  A    between atoms: _238  and  _240
REMARK  103  A    between atoms: _240  and  _241
REMARK  104  A    between atoms: _243  and  _245
REMARK  105  A    between atoms: _245  and  _246
REMARK  106  A    between atoms: _245  and  _248
REMARK  107  A    between atoms: _248  and  _249
REMARK  108  A    between atoms: _253  and  MN_472
REMARK  109  A    between atoms: _255  and  _256
REMARK  110  A    between atoms: _261  and  _263
REMARK  111  A    between atoms: _263  and  _264
REMARK  112  A    between atoms: _263  and  _266
REMARK  113  A    between atoms: _266  and  _267
REMARK  114  A    between atoms: _267  and  _268
REMARK  115  A    between atoms: _273  and  _275
REMARK  116  A    between atoms: _275  and  _276
REMARK  117  A    between atoms: _275  and  _278
REMARK  118  A    between atoms: _278  and  _279
REMARK  119  A    between atoms: _279  and  _280
REMARK  120  A    between atoms: _280  and  _281
REMARK  121  A    between atoms: _290  and  _292
REMARK  122  A    between atoms: _292  and  _293
REMARK  123  A    between atoms: _292  and  _295
REMARK  124  A    between atoms: _295  and  _296
REMARK  125  A    between atoms: _296  and  _297
REMARK  126  A    between atoms: _297  and  _298
REMARK  127  A    between atoms: _307  and  _309
REMARK  128  A    between atoms: _309  and  _310
REMARK  129  A    between atoms: _309  and  _312
REMARK  130  A    between atoms: _312  and  _313
REMARK  131  A    between atoms: _318  and  _319
REMARK  132  A    between atoms: _321  and  _323
REMARK  133  A    between atoms: _323  and  _324
REMARK  134  A    between atoms: _323  and  _326
REMARK  135  A    between atoms: _326  and  _327
REMARK  136  A    between atoms: _327  and  _328
REMARK  137  A    between atoms: _328  and  _330
REMARK  138  A    between atoms: _330  and  MG_473
REMARK  139  A    between atoms: _331  and  _333
REMARK  140  A    between atoms: _333  and  _334
REMARK  141  A    between atoms: _333  and  _336
REMARK  142  A    between atoms: _336  and  _337
REMARK  143  A    between atoms: _343  and  _345
REMARK  144  A    between atoms: _345  and  _346
REMARK  145  A    between atoms: _345  and  _348
REMARK  146  A    between atoms: _348  and  _349
REMARK  147  A    between atoms: _354  and  _355
REMARK  148  A    between atoms: _357  and  _359
REMARK  149  A    between atoms: _369  and  _372
REMARK  150  A    between atoms: _372  and  _373
REMARK  151  A    between atoms: _380  and  _381
REMARK  152  A    between atoms: _388  and  _390
REMARK  153  A    between atoms: _390  and  _391
REMARK  154  A    between atoms: _390  and  _393
REMARK  155  A    between atoms: _396  and  _398
REMARK  156  A    between atoms: _398  and  _399
REMARK  157  A    between atoms: _398  and  _401
REMARK  158  A    between atoms: _404  and  _405
REMARK  159  A    between atoms: _410  and  _412
REMARK  160  A    between atoms: _412  and  _413
REMARK  161  A    between atoms: _412  and  _415
REMARK  162  A    between atoms: _415  and  _416
REMARK  163  A    between atoms: _416  and  _417
REMARK  164  A    between atoms: _420  and  _422
REMARK  165  A    between atoms: _422  and  _423
REMARK  166  A    between atoms: _422  and  _425
REMARK  167  A    between atoms: _425  and  _426
REMARK  168  A    between atoms: _429  and  _430
REMARK  169  A    between atoms: _435  and  _437
REMARK  170  A    between atoms: _437  and  _438
REMARK  171  A    between atoms: _437  and  _440
REMARK  172  A    between atoms: _440  and  _441
REMARK  173  A    between atoms: _451  and  _453
REMARK  174  A    between atoms: _453  and  _454
REMARK  175  A    between atoms: _453  and  _456
REMARK  176  A    between atoms: _456  and  _457
REMARK  177  A    between atoms: _457  and  _458
REMARK  178  A    between atoms: _460  and  _462
REMARK  179  A    between atoms: _462  and  _463
REMARK  180  A    between atoms: _462  and  _465
REMARK  181  A    between atoms: _465  and  _466
REMARK  182  A    between atoms: _466  and  _467
REMARK                            x       y       z     vdW  Elec       q    Type
REMARK                         _______ _______ _______ _____ _____    ______ ____
ROOT
ATOM      1  O   HOH     1       0.739  -0.783  18.079  0.00  0.00    +0.000 OA
ENDROOT
TORSDOF 0
