REMARK  Name = ../refined-set-2016/3s45/3s45_pocket.pdb
REMARK  222 active torsions:
REMARK  status: ('A' for Active; 'I' for Inactive)
REMARK    1  A    between atoms: _1  and  _3
REMARK    2  A    between atoms: _3  and  _4
REMARK    3  A    between atoms: _3  and  _6
REMARK    4  A    between atoms: _6  and  _7
REMARK    5  A    between atoms: _7  and  _8
REMARK    6  A    between atoms: _8  and  _9
REMARK    7  A    between atoms: _18  and  _20
REMARK    8  A    between atoms: _20  and  _21
REMARK    9  A    between atoms: _20  and  _23
REMARK   10  A    between atoms: _23  and  _24
REMARK   11  A    between atoms: _27  and  _29
REMARK   12  A    between atoms: _29  and  _30
REMARK   13  A    between atoms: _29  and  _32
REMARK   14  A    between atoms: _32  and  _33
REMARK   15  A    between atoms: _36  and  _38
REMARK   16  A    between atoms: _38  and  _39
REMARK   17  A    between atoms: _38  and  _41
REMARK   18  A    between atoms: _41  and  _42
REMARK   19  A    between atoms: _45  and  _47
REMARK   20  A    between atoms: _47  and  _48
REMARK   21  A    between atoms: _47  and  _50
REMARK   22  A    between atoms: _50  and  _51
REMARK   23  A    between atoms: _54  and  _56
REMARK   24  A    between atoms: _56  and  _57
REMARK   25  A    between atoms: _59  and  _61
REMARK   26  A    between atoms: _61  and  _62
REMARK   27  A    between atoms: _65  and  _67
REMARK   28  A    between atoms: _67  and  _68
REMARK   29  A    between atoms: _67  and  _70
REMARK   30  A    between atoms: _70  and  _71
REMARK   31  A    between atoms: _74  and  _76
REMARK   32  A    between atoms: _76  and  _77
REMARK   33  A    between atoms: _76  and  _79
REMARK   34  A    between atoms: _79  and  _80
REMARK   35  A    between atoms: _83  and  _85
REMARK   36  A    between atoms: _85  and  _86
REMARK   37  A    between atoms: _85  and  _88
REMARK   38  A    between atoms: _88  and  _89
REMARK   39  A    between atoms: _91  and  _93
REMARK   40  A    between atoms: _93  and  _94
REMARK   41  A    between atoms: _93  and  _96
REMARK   42  A    between atoms: _96  and  _97
REMARK   43  A    between atoms: _100  and  _102
REMARK   44  A    between atoms: _102  and  _103
REMARK   45  A    between atoms: _102  and  _105
REMARK   46  A    between atoms: _105  and  _106
REMARK   47  A    between atoms: _106  and  _107
REMARK   48  A    between atoms: _107  and  _108
REMARK   49  A    between atoms: _108  and  _109
REMARK   50  A    between atoms: _113  and  _115
REMARK   51  A    between atoms: _115  and  _116
REMARK   52  A    between atoms: _115  and  _118
REMARK   53  A    between atoms: _118  and  _119
REMARK   54  A    between atoms: _122  and  _124
REMARK   55  A    between atoms: _124  and  _125
REMARK   56  A    between atoms: _124  and  _127
REMARK   57  A    between atoms: _130  and  _132
REMARK   58  A    between atoms: _132  and  _133
REMARK   59  A    between atoms: _135  and  _137
REMARK   60  A    between atoms: _137  and  _138
REMARK   61  A    between atoms: _140  and  _142
REMARK   62  A    between atoms: _142  and  _143
REMARK   63  A    between atoms: _142  and  _145
REMARK   64  A    between atoms: _145  and  _146
REMARK   65  A    between atoms: _149  and  _151
REMARK   66  A    between atoms: _151  and  _152
REMARK   67  A    between atoms: _154  and  _156
REMARK   68  A    between atoms: _156  and  _157
REMARK   69  A    between atoms: _159  and  _161
REMARK   70  A    between atoms: _161  and  _162
REMARK   71  A    between atoms: _161  and  _164
REMARK   72  A    between atoms: _164  and  _165
REMARK   73  A    between atoms: _168  and  _170
REMARK   74  A    between atoms: _170  and  _171
REMARK   75  A    between atoms: _170  and  _173
REMARK   76  A    between atoms: _173  and  _174
REMARK   77  A    between atoms: _177  and  _179
REMARK   78  A    between atoms: _179  and  _180
REMARK   79  A    between atoms: _179  and  _182
REMARK   80  A    between atoms: _182  and  _183
REMARK   81  A    between atoms: _183  and  _184
REMARK   82  A    between atoms: _186  and  _188
REMARK   83  A    between atoms: _188  and  _189
REMARK   84  A    between atoms: _188  and  _191
REMARK   85  A    between atoms: _191  and  _192
REMARK   86  A    between atoms: _196  and  _197
REMARK   87  A    between atoms: _202  and  _204
REMARK   88  A    between atoms: _204  and  _205
REMARK   89  A    between atoms: _204  and  _207
REMARK   90  A    between atoms: _207  and  _208
REMARK   91  A    between atoms: _211  and  _213
REMARK   92  A    between atoms: _213  and  _214
REMARK   93  A    between atoms: _213  and  _216
REMARK   94  A    between atoms: _216  and  _217
REMARK   95  A    between atoms: _222  and  _224
REMARK   96  A    between atoms: _224  and  _225
REMARK   97  A    between atoms: _224  and  _227
REMARK   98  A    between atoms: _227  and  _228
REMARK   99  A    between atoms: _231  and  _233
REMARK  100  A    between atoms: _233  and  _234
REMARK  101  A    between atoms: _233  and  _236
REMARK  102  A    between atoms: _236  and  _237
REMARK  103  A    between atoms: _243  and  _245
REMARK  104  A    between atoms: _245  and  _246
REMARK  105  A    between atoms: _248  and  _250
REMARK  106  A    between atoms: _250  and  _251
REMARK  107  A    between atoms: _250  and  _253
REMARK  108  A    between atoms: _253  and  _254
REMARK  109  A    between atoms: _254  and  _255
REMARK  110  A    between atoms: _255  and  _256
REMARK  111  A    between atoms: _265  and  _267
REMARK  112  A    between atoms: _267  and  _268
REMARK  113  A    between atoms: _267  and  _270
REMARK  114  A    between atoms: _270  and  _271
REMARK  115  A    between atoms: _276  and  _278
REMARK  116  A    between atoms: _278  and  _279
REMARK  117  A    between atoms: _278  and  _281
REMARK  118  A    between atoms: _281  and  _282
REMARK  119  A    between atoms: _282  and  _283
REMARK  120  A    between atoms: _283  and  _284
REMARK  121  A    between atoms: _293  and  _295
REMARK  122  A    between atoms: _295  and  _296
REMARK  123  A    between atoms: _295  and  _298
REMARK  124  A    between atoms: _298  and  _299
REMARK  125  A    between atoms: _302  and  _304
REMARK  126  A    between atoms: _304  and  _305
REMARK  127  A    between atoms: _304  and  _307
REMARK  128  A    between atoms: _307  and  _308
REMARK  129  A    between atoms: _311  and  _313
REMARK  130  A    between atoms: _313  and  _314
REMARK  131  A    between atoms: _313  and  _316
REMARK  132  A    between atoms: _316  and  _317
REMARK  133  A    between atoms: _320  and  _322
REMARK  134  A    between atoms: _322  and  _323
REMARK  135  A    between atoms: _322  and  _325
REMARK  136  A    between atoms: _325  and  _326
REMARK  137  A    between atoms: _329  and  _331
REMARK  138  A    between atoms: _331  and  _332
REMARK  139  A    between atoms: _334  and  _336
REMARK  140  A    between atoms: _336  and  _337
REMARK  141  A    between atoms: _340  and  _342
REMARK  142  A    between atoms: _342  and  _343
REMARK  143  A    between atoms: _342  and  _345
REMARK  144  A    between atoms: _345  and  _346
REMARK  145  A    between atoms: _349  and  _351
REMARK  146  A    between atoms: _351  and  _352
REMARK  147  A    between atoms: _351  and  _354
REMARK  148  A    between atoms: _354  and  _355
REMARK  149  A    between atoms: _355  and  _357
REMARK  150  A    between atoms: _358  and  _360
REMARK  151  A    between atoms: _360  and  _361
REMARK  152  A    between atoms: _360  and  _363
REMARK  153  A    between atoms: _363  and  _364
REMARK  154  A    between atoms: _366  and  _368
REMARK  155  A    between atoms: _368  and  _369
REMARK  156  A    between atoms: _368  and  _371
REMARK  157  A    between atoms: _371  and  _372
REMARK  158  A    between atoms: _375  and  _377
REMARK  159  A    between atoms: _377  and  _378
REMARK  160  A    between atoms: _377  and  _380
REMARK  161  A    between atoms: _380  and  _381
REMARK  162  A    between atoms: _384  and  _386
REMARK  163  A    between atoms: _386  and  _387
REMARK  164  A    between atoms: _386  and  _389
REMARK  165  A    between atoms: _392  and  _394
REMARK  166  A    between atoms: _394  and  _395
REMARK  167  A    between atoms: _397  and  _399
REMARK  168  A    between atoms: _399  and  _400
REMARK  169  A    between atoms: _402  and  _404
REMARK  170  A    between atoms: _404  and  _405
REMARK  171  A    between atoms: _404  and  _407
REMARK  172  A    between atoms: _407  and  _408
REMARK  173  A    between atoms: _411  and  _413
REMARK  174  A    between atoms: _413  and  _414
REMARK  175  A    between atoms: _416  and  _418
REMARK  176  A    between atoms: _418  and  _419
REMARK  177  A    between atoms: _421  and  _423
REMARK  178  A    between atoms: _423  and  _424
REMARK  179  A    between atoms: _423  and  _426
REMARK  180  A    between atoms: _426  and  _427
REMARK  181  A    between atoms: _430  and  _432
REMARK  182  A    between atoms: _432  and  _433
REMARK  183  A    between atoms: _432  and  _435
REMARK  184  A    between atoms: _435  and  _436
REMARK  185  A    between atoms: _439  and  _441
REMARK  186  A    between atoms: _441  and  _442
REMARK  187  A    between atoms: _441  and  _444
REMARK  188  A    between atoms: _444  and  _445
REMARK  189  A    between atoms: _445  and  _446
REMARK  190  A    between atoms: _448  and  _450
REMARK  191  A    between atoms: _450  and  _451
REMARK  192  A    between atoms: _450  and  _453
REMARK  193  A    between atoms: _453  and  _454
REMARK  194  A    between atoms: _458  and  _459
REMARK  195  A    between atoms: _464  and  _466
REMARK  196  A    between atoms: _466  and  _467
REMARK  197  A    between atoms: _466  and  _469
REMARK  198  A    between atoms: _469  and  _470
REMARK  199  A    between atoms: _473  and  _475
REMARK  200  A    between atoms: _475  and  _476
REMARK  201  A    between atoms: _475  and  _478
REMARK  202  A    between atoms: _478  and  _479
REMARK  203  A    between atoms: _484  and  _486
REMARK  204  A    between atoms: _486  and  _487
REMARK  205  A    between atoms: _486  and  _489
REMARK  206  A    between atoms: _489  and  _490
REMARK  207  A    between atoms: _493  and  _495
REMARK  208  A    between atoms: _495  and  _496
REMARK  209  A    between atoms: _495  and  _498
REMARK  210  A    between atoms: _498  and  _499
REMARK  211  A    between atoms: _505  and  _507
REMARK  212  A    between atoms: _507  and  _508
REMARK  213  A    between atoms: _510  and  _512
REMARK  214  A    between atoms: _512  and  _513
REMARK  215  A    between atoms: _512  and  _515
REMARK  216  A    between atoms: _515  and  _516
REMARK  217  A    between atoms: _516  and  _517
REMARK  218  A    between atoms: _517  and  _518
REMARK  219  A    between atoms: _527  and  _529
REMARK  220  A    between atoms: _529  and  _530
REMARK  221  A    between atoms: _529  and  _532
REMARK  222  A    between atoms: _532  and  _533
REMARK                            x       y       z     vdW  Elec       q    Type
REMARK                         _______ _______ _______ _____ _____    ______ ____
ROOT
ATOM      1  NE  ARG A   1      22.106  16.316   9.932  0.00  0.00    -0.265 N 
ATOM      2  CZ  ARG A   1      21.542  17.144  10.804  0.00  0.00    +0.342 C 
ATOM      3  NH2 ARG A   1      22.181  17.431  11.936  0.00  0.00    -0.292 N 
ATOM      4 HH21 ARG A   1      21.750  18.078  12.627  0.00  0.00    +0.255 HD
ATOM      5 HH22 ARG A   1      23.111  17.008  12.130  0.00  0.00    +0.255 HD
ATOM      6  NH1 ARG A   1      20.351  17.676  10.526  0.00  0.00    -0.292 N 
ATOM      7 HH11 ARG A   1      19.901  18.325  11.202  0.00  0.00    +0.255 HD
ATOM      8 HH12 ARG A   1      19.872  17.441   9.633  0.00  0.00    +0.255 HD
ATOM      9  HE  ARG A   1      23.039  15.923  10.169  0.00  0.00    +0.259 HD
ENDROOT
BRANCH   1  10
ATOM     10  CD  ARG A   1      21.504  15.923   8.666  0.00  0.00    +0.174 C 
BRANCH  10  11
ATOM     11  CG  ARG A   1      22.309  14.805   8.037  0.00  0.00    +0.045 C 
BRANCH  11  12
ATOM     12  CB  ARG A   1      21.475  14.091   6.999  0.00  0.00    +0.029 C 
BRANCH  12  13
ATOM     13  CA  ARG A   1      22.246  13.105   6.120  0.00  0.00    +0.133 C 
BRANCH  13  14
ATOM     14  N   ARG A   1      23.239  13.777   5.287  0.00  0.00    -0.239 NA
ATOM     15  H   ARG A   1      23.337  14.811   5.346  0.00  0.00    +0.142 HD
ENDBRANCH  13  14
BRANCH  13  16
ATOM     16  C   ARG A   1      21.222  12.370   5.256  0.00  0.00    +0.224 C 
ATOM     17  O   ARG A   1      20.726  13.029   4.318  0.00  0.00    -0.287 OA
ENDBRANCH  13  16
ENDBRANCH  12  13
ENDBRANCH  11  12
ENDBRANCH  10  11
ENDBRANCH   1  10
TORSDOF 6
REMARK  Name = ../refined-set-2016/3s45/3s45_pocket.pdb
REMARK  222 active torsions:
REMARK  status: ('A' for Active; 'I' for Inactive)
REMARK    1  A    between atoms: _1  and  _3
REMARK    2  A    between atoms: _3  and  _4
REMARK    3  A    between atoms: _3  and  _6
REMARK    4  A    between atoms: _6  and  _7
REMARK    5  A    between atoms: _7  and  _8
REMARK    6  A    between atoms: _8  and  _9
REMARK    7  A    between atoms: _18  and  _20
REMARK    8  A    between atoms: _20  and  _21
REMARK    9  A    between atoms: _20  and  _23
REMARK   10  A    between atoms: _23  and  _24
REMARK   11  A    between atoms: _27  and  _29
REMARK   12  A    between atoms: _29  and  _30
REMARK   13  A    between atoms: _29  and  _32
REMARK   14  A    between atoms: _32  and  _33
REMARK   15  A    between atoms: _36  and  _38
REMARK   16  A    between atoms: _38  and  _39
REMARK   17  A    between atoms: _38  and  _41
REMARK   18  A    between atoms: _41  and  _42
REMARK   19  A    between atoms: _45  and  _47
REMARK   20  A    between atoms: _47  and  _48
REMARK   21  A    between atoms: _47  and  _50
REMARK   22  A    between atoms: _50  and  _51
REMARK   23  A    between atoms: _54  and  _56
REMARK   24  A    between atoms: _56  and  _57
REMARK   25  A    between atoms: _59  and  _61
REMARK   26  A    between atoms: _61  and  _62
REMARK   27  A    between atoms: _65  and  _67
REMARK   28  A    between atoms: _67  and  _68
REMARK   29  A    between atoms: _67  and  _70
REMARK   30  A    between atoms: _70  and  _71
REMARK   31  A    between atoms: _74  and  _76
REMARK   32  A    between atoms: _76  and  _77
REMARK   33  A    between atoms: _76  and  _79
REMARK   34  A    between atoms: _79  and  _80
REMARK   35  A    between atoms: _83  and  _85
REMARK   36  A    between atoms: _85  and  _86
REMARK   37  A    between atoms: _85  and  _88
REMARK   38  A    between atoms: _88  and  _89
REMARK   39  A    between atoms: _91  and  _93
REMARK   40  A    between atoms: _93  and  _94
REMARK   41  A    between atoms: _93  and  _96
REMARK   42  A    between atoms: _96  and  _97
REMARK   43  A    between atoms: _100  and  _102
REMARK   44  A    between atoms: _102  and  _103
REMARK   45  A    between atoms: _102  and  _105
REMARK   46  A    between atoms: _105  and  _106
REMARK   47  A    between atoms: _106  and  _107
REMARK   48  A    between atoms: _107  and  _108
REMARK   49  A    between atoms: _108  and  _109
REMARK   50  A    between atoms: _113  and  _115
REMARK   51  A    between atoms: _115  and  _116
REMARK   52  A    between atoms: _115  and  _118
REMARK   53  A    between atoms: _118  and  _119
REMARK   54  A    between atoms: _122  and  _124
REMARK   55  A    between atoms: _124  and  _125
REMARK   56  A    between atoms: _124  and  _127
REMARK   57  A    between atoms: _130  and  _132
REMARK   58  A    between atoms: _132  and  _133
REMARK   59  A    between atoms: _135  and  _137
REMARK   60  A    between atoms: _137  and  _138
REMARK   61  A    between atoms: _140  and  _142
REMARK   62  A    between atoms: _142  and  _143
REMARK   63  A    between atoms: _142  and  _145
REMARK   64  A    between atoms: _145  and  _146
REMARK   65  A    between atoms: _149  and  _151
REMARK   66  A    between atoms: _151  and  _152
REMARK   67  A    between atoms: _154  and  _156
REMARK   68  A    between atoms: _156  and  _157
REMARK   69  A    between atoms: _159  and  _161
REMARK   70  A    between atoms: _161  and  _162
REMARK   71  A    between atoms: _161  and  _164
REMARK   72  A    between atoms: _164  and  _165
REMARK   73  A    between atoms: _168  and  _170
REMARK   74  A    between atoms: _170  and  _171
REMARK   75  A    between atoms: _170  and  _173
REMARK   76  A    between atoms: _173  and  _174
REMARK   77  A    between atoms: _177  and  _179
REMARK   78  A    between atoms: _179  and  _180
REMARK   79  A    between atoms: _179  and  _182
REMARK   80  A    between atoms: _182  and  _183
REMARK   81  A    between atoms: _183  and  _184
REMARK   82  A    between atoms: _186  and  _188
REMARK   83  A    between atoms: _188  and  _189
REMARK   84  A    between atoms: _188  and  _191
REMARK   85  A    between atoms: _191  and  _192
REMARK   86  A    between atoms: _196  and  _197
REMARK   87  A    between atoms: _202  and  _204
REMARK   88  A    between atoms: _204  and  _205
REMARK   89  A    between atoms: _204  and  _207
REMARK   90  A    between atoms: _207  and  _208
REMARK   91  A    between atoms: _211  and  _213
REMARK   92  A    between atoms: _213  and  _214
REMARK   93  A    between atoms: _213  and  _216
REMARK   94  A    between atoms: _216  and  _217
REMARK   95  A    between atoms: _222  and  _224
REMARK   96  A    between atoms: _224  and  _225
REMARK   97  A    between atoms: _224  and  _227
REMARK   98  A    between atoms: _227  and  _228
REMARK   99  A    between atoms: _231  and  _233
REMARK  100  A    between atoms: _233  and  _234
REMARK  101  A    between atoms: _233  and  _236
REMARK  102  A    between atoms: _236  and  _237
REMARK  103  A    between atoms: _243  and  _245
REMARK  104  A    between atoms: _245  and  _246
REMARK  105  A    between atoms: _248  and  _250
REMARK  106  A    between atoms: _250  and  _251
REMARK  107  A    between atoms: _250  and  _253
REMARK  108  A    between atoms: _253  and  _254
REMARK  109  A    between atoms: _254  and  _255
REMARK  110  A    between atoms: _255  and  _256
REMARK  111  A    between atoms: _265  and  _267
REMARK  112  A    between atoms: _267  and  _268
REMARK  113  A    between atoms: _267  and  _270
REMARK  114  A    between atoms: _270  and  _271
REMARK  115  A    between atoms: _276  and  _278
REMARK  116  A    between atoms: _278  and  _279
REMARK  117  A    between atoms: _278  and  _281
REMARK  118  A    between atoms: _281  and  _282
REMARK  119  A    between atoms: _282  and  _283
REMARK  120  A    between atoms: _283  and  _284
REMARK  121  A    between atoms: _293  and  _295
REMARK  122  A    between atoms: _295  and  _296
REMARK  123  A    between atoms: _295  and  _298
REMARK  124  A    between atoms: _298  and  _299
REMARK  125  A    between atoms: _302  and  _304
REMARK  126  A    between atoms: _304  and  _305
REMARK  127  A    between atoms: _304  and  _307
REMARK  128  A    between atoms: _307  and  _308
REMARK  129  A    between atoms: _311  and  _313
REMARK  130  A    between atoms: _313  and  _314
REMARK  131  A    between atoms: _313  and  _316
REMARK  132  A    between atoms: _316  and  _317
REMARK  133  A    between atoms: _320  and  _322
REMARK  134  A    between atoms: _322  and  _323
REMARK  135  A    between atoms: _322  and  _325
REMARK  136  A    between atoms: _325  and  _326
REMARK  137  A    between atoms: _329  and  _331
REMARK  138  A    between atoms: _331  and  _332
REMARK  139  A    between atoms: _334  and  _336
REMARK  140  A    between atoms: _336  and  _337
REMARK  141  A    between atoms: _340  and  _342
REMARK  142  A    between atoms: _342  and  _343
REMARK  143  A    between atoms: _342  and  _345
REMARK  144  A    between atoms: _345  and  _346
REMARK  145  A    between atoms: _349  and  _351
REMARK  146  A    between atoms: _351  and  _352
REMARK  147  A    between atoms: _351  and  _354
REMARK  148  A    between atoms: _354  and  _355
REMARK  149  A    between atoms: _355  and  _357
REMARK  150  A    between atoms: _358  and  _360
REMARK  151  A    between atoms: _360  and  _361
REMARK  152  A    between atoms: _360  and  _363
REMARK  153  A    between atoms: _363  and  _364
REMARK  154  A    between atoms: _366  and  _368
REMARK  155  A    between atoms: _368  and  _369
REMARK  156  A    between atoms: _368  and  _371
REMARK  157  A    between atoms: _371  and  _372
REMARK  158  A    between atoms: _375  and  _377
REMARK  159  A    between atoms: _377  and  _378
REMARK  160  A    between atoms: _377  and  _380
REMARK  161  A    between atoms: _380  and  _381
REMARK  162  A    between atoms: _384  and  _386
REMARK  163  A    between atoms: _386  and  _387
REMARK  164  A    between atoms: _386  and  _389
REMARK  165  A    between atoms: _392  and  _394
REMARK  166  A    between atoms: _394  and  _395
REMARK  167  A    between atoms: _397  and  _399
REMARK  168  A    between atoms: _399  and  _400
REMARK  169  A    between atoms: _402  and  _404
REMARK  170  A    between atoms: _404  and  _405
REMARK  171  A    between atoms: _404  and  _407
REMARK  172  A    between atoms: _407  and  _408
REMARK  173  A    between atoms: _411  and  _413
REMARK  174  A    between atoms: _413  and  _414
REMARK  175  A    between atoms: _416  and  _418
REMARK  176  A    between atoms: _418  and  _419
REMARK  177  A    between atoms: _421  and  _423
REMARK  178  A    between atoms: _423  and  _424
REMARK  179  A    between atoms: _423  and  _426
REMARK  180  A    between atoms: _426  and  _427
REMARK  181  A    between atoms: _430  and  _432
REMARK  182  A    between atoms: _432  and  _433
REMARK  183  A    between atoms: _432  and  _435
REMARK  184  A    between atoms: _435  and  _436
REMARK  185  A    between atoms: _439  and  _441
REMARK  186  A    between atoms: _441  and  _442
REMARK  187  A    between atoms: _441  and  _444
REMARK  188  A    between atoms: _444  and  _445
REMARK  189  A    between atoms: _445  and  _446
REMARK  190  A    between atoms: _448  and  _450
REMARK  191  A    between atoms: _450  and  _451
REMARK  192  A    between atoms: _450  and  _453
REMARK  193  A    between atoms: _453  and  _454
REMARK  194  A    between atoms: _458  and  _459
REMARK  195  A    between atoms: _464  and  _466
REMARK  196  A    between atoms: _466  and  _467
REMARK  197  A    between atoms: _466  and  _469
REMARK  198  A    between atoms: _469  and  _470
REMARK  199  A    between atoms: _473  and  _475
REMARK  200  A    between atoms: _475  and  _476
REMARK  201  A    between atoms: _475  and  _478
REMARK  202  A    between atoms: _478  and  _479
REMARK  203  A    between atoms: _484  and  _486
REMARK  204  A    between atoms: _486  and  _487
REMARK  205  A    between atoms: _486  and  _489
REMARK  206  A    between atoms: _489  and  _490
REMARK  207  A    between atoms: _493  and  _495
REMARK  208  A    between atoms: _495  and  _496
REMARK  209  A    between atoms: _495  and  _498
REMARK  210  A    between atoms: _498  and  _499
REMARK  211  A    between atoms: _505  and  _507
REMARK  212  A    between atoms: _507  and  _508
REMARK  213  A    between atoms: _510  and  _512
REMARK  214  A    between atoms: _512  and  _513
REMARK  215  A    between atoms: _512  and  _515
REMARK  216  A    between atoms: _515  and  _516
REMARK  217  A    between atoms: _516  and  _517
REMARK  218  A    between atoms: _517  and  _518
REMARK  219  A    between atoms: _527  and  _529
REMARK  220  A    between atoms: _529  and  _530
REMARK  221  A    between atoms: _529  and  _532
REMARK  222  A    between atoms: _532  and  _533
REMARK                            x       y       z     vdW  Elec       q    Type
REMARK                         _______ _______ _______ _____ _____    ______ ____
ROOT
ATOM      1  C   GLY A   5      20.055   4.558  16.656  0.00  0.00    +0.243 C 
ATOM      2  O   GLY A   5      20.188   4.667  17.879  0.00  0.00    -0.273 OA
ATOM      3  N   ALA A   6      18.847   4.585  16.086  0.00  0.00    -0.297 N 
ATOM      4  H   ALA A   6      18.776   4.523  15.050  0.00  0.00    +0.150 HD
ENDROOT
BRANCH   3   5
ATOM      5  CA  ALA A   6      17.624   4.699  16.874  0.00  0.00    +0.149 C 
ATOM      6  CB  ALA A   6      16.730   5.774  16.279  0.00  0.00    +0.031 C 
BRANCH   5   7
ATOM      7  C   ALA A   6      16.821   3.401  16.907  0.00  0.00    +0.241 C 
ATOM      8  N   ASP A   7      16.438   2.875  18.058  0.00  0.00    -0.297 N 
ATOM      9  H   ASP A   7      16.703   3.321  18.959  0.00  0.00    +0.150 HD
ATOM     10  O   ALA A   6      16.526   2.864  15.838  0.00  0.00    -0.273 OA
BRANCH   8  11
ATOM     11  CA  ASP A   7      15.636   1.656  18.039  0.00  0.00    +0.160 C 
BRANCH  11  12
ATOM     12  C   ASP A   7      14.250   1.903  17.448  0.00  0.00    +0.241 C 
ATOM     13  N   ASP A   8      13.708   3.069  17.763  0.00  0.00    -0.297 N 
ATOM     14  H   ASP A   8      14.319   3.769  18.231  0.00  0.00    +0.150 HD
ATOM     15  O   ASP A   7      13.673   1.066  16.746  0.00  0.00    -0.273 OA
BRANCH  13  16
ATOM     16  CA  ASP A   8      12.336   3.450  17.510  0.00  0.00    +0.160 C 
BRANCH  16  17
ATOM     17  C   ASP A   8      12.262   4.723  16.669  0.00  0.00    +0.241 C 
ATOM     18  N   SER A   9      11.060   5.170  16.355  0.00  0.00    -0.295 N 
ATOM     19  H   SER A   9      10.225   4.663  16.712  0.00  0.00    +0.150 HD
ATOM     20  O   ASP A   8      13.273   5.301  16.317  0.00  0.00    -0.273 OA
BRANCH  18  21
ATOM     21  CA  SER A   9      10.867   6.355  15.522  0.00  0.00    +0.178 C 
BRANCH  21  22
ATOM     22  C   SER A   9      10.155   7.478  16.251  0.00  0.00    +0.243 C 
ATOM     23  O   SER A   9       9.202   7.323  17.021  0.00  0.00    -0.273 OA
ATOM     24  N   ILE A  10      10.603   8.714  16.070  0.00  0.00    -0.298 N 
ATOM     25  H   ILE A  10      11.380   8.879  15.399  0.00  0.00    +0.150 HD
BRANCH  24  26
ATOM     26  CA  ILE A  10      10.031   9.844  16.789  0.00  0.00    +0.137 C 
BRANCH  26  27
ATOM     27  C   ILE A  10       9.893  11.035  15.835  0.00  0.00    +0.227 C 
ATOM     28  O   ILE A  10      10.867  11.347  15.144  0.00  0.00    -0.286 OA
ENDBRANCH  26  27
BRANCH  26  29
ATOM     29  CB  ILE A  10      10.892  10.266  17.986  0.00  0.00    +0.026 C 
ATOM     30  CG2 ILE A  10      10.130  11.171  18.954  0.00  0.00    +0.002 C 
BRANCH  29  31
ATOM     31  CG1 ILE A  10      11.506   9.108  18.779  0.00  0.00    +0.002 C 
ATOM     32  CD1 ILE A  10      12.631   9.561  19.685  0.00  0.00    +0.000 C 
ENDBRANCH  29  31
ENDBRANCH  26  29
ENDBRANCH  24  26
ENDBRANCH  21  22
BRANCH  21  33
ATOM     33  CB  SER A   9      10.038   5.923  14.311  0.00  0.00    +0.166 C 
BRANCH  33  34
ATOM     34  OG  SER A   9      10.737   4.878  13.625  0.00  0.00    -0.380 OA
ATOM     35  H   SER A   9      10.864   4.110  14.237  0.00  0.00    +0.211 HD
ENDBRANCH  33  34
ENDBRANCH  21  33
ENDBRANCH  18  21
ENDBRANCH  16  17
BRANCH  16  36
ATOM     36  CB  ASP A   8      11.556   3.704  18.824  0.00  0.00    +0.143 C 
BRANCH  36  37
ATOM     37  CG  ASP A   8      12.155   3.056  20.042  0.00  0.00    +0.367 C 
ATOM     38  OD2 ASP A   8      12.036   3.539  21.196  0.00  0.00    -0.246 OA
ATOM     39  OD1 ASP A   8      12.790   1.987  19.876  0.00  0.00    -0.246 OA
ENDBRANCH  36  37
ENDBRANCH  16  36
ENDBRANCH  13  16
ENDBRANCH  11  12
BRANCH  11  40
ATOM     40  CB  ASP A   7      15.460   1.170  19.468  0.00  0.00    +0.143 C 
BRANCH  40  41
ATOM     41  CG  ASP A   7      16.662   0.617  20.189  0.00  0.00    +0.367 C 
ATOM     42  OD2 ASP A   7      16.539   0.455  21.445  0.00  0.00    -0.246 OA
ATOM     43  OD1 ASP A   7      17.729   0.331  19.617  0.00  0.00    -0.246 OA
ENDBRANCH  40  41
ENDBRANCH  11  40
ENDBRANCH   8  11
ENDBRANCH   5   7
ENDBRANCH   3   5
BRANCH   1  44
ATOM     44  CA  GLY A   5      21.278   4.391  15.767  0.00  0.00    +0.176 C 
BRANCH  44  47
ATOM     45  C   THR A   4      20.576   3.084  13.806  0.00  0.00    +0.243 C 
ATOM     46  O   THR A   4      20.552   2.036  14.454  0.00  0.00    -0.273 OA
ATOM     47  N   GLY A   5      20.894   4.234  14.368  0.00  0.00    -0.295 N 
ATOM     48  H   GLY A   5      20.869   5.087  13.774  0.00  0.00    +0.150 HD
BRANCH  45  49
ATOM     49  CA  THR A   4      20.259   3.081  12.324  0.00  0.00    +0.176 C 
BRANCH  49  52
ATOM     50  C   ASP A   3      18.879   5.066  12.150  0.00  0.00    +0.241 C 
ATOM     51  O   ASP A   3      18.082   4.574  12.946  0.00  0.00    -0.273 OA
ATOM     52  N   THR A   4      20.004   4.436  11.810  0.00  0.00    -0.295 N 
ATOM     53  H   THR A   4      20.696   4.899  11.186  0.00  0.00    +0.150 HD
BRANCH  50  54
ATOM     54  CA  ASP A   3      18.642   6.431  11.540  0.00  0.00    +0.160 C 
BRANCH  54  56
ATOM     55  C   LEU A   2      17.920   6.966   9.309  0.00  0.00    +0.241 C 
ATOM     56  N   ASP A   3      17.606   6.477  10.502  0.00  0.00    -0.297 N 
ATOM     57  H   ASP A   3      16.644   6.133  10.697  0.00  0.00    +0.150 HD
ATOM     58  O   LEU A   2      19.087   7.136   8.944  0.00  0.00    -0.273 OA
BRANCH  55  59
ATOM     59  CA  LEU A   2      16.786   7.355   8.380  0.00  0.00    +0.149 C 
BRANCH  59  62
ATOM     60  C   LEU A   1      16.101   9.536   9.215  0.00  0.00    +0.238 C 
ATOM     61  O   LEU A   1      15.522   8.997  10.155  0.00  0.00    -0.274 OA
ATOM     62  N   LEU A   2      16.739   8.817   8.302  0.00  0.00    -0.297 N 
ATOM     63  H   LEU A   2      17.216   9.301   7.514  0.00  0.00    +0.150 HD
BRANCH  60  64
ATOM     64  CA  LEU A   1      16.095  11.052   9.037  0.00  0.00    +0.145 C 
BRANCH  64  65
ATOM     65  N   LEU A   1      14.724  11.535   9.046  0.00  0.00    -0.238 NA
ATOM     66  H   LEU A   1      14.281  11.743   9.964  0.00  0.00    +0.142 HD
ENDBRANCH  64  65
BRANCH  64  67
ATOM     67  CB  LEU A   1      16.862  11.796  10.124  0.00  0.00    +0.026 C 
BRANCH  67  68
ATOM     68  CG  LEU A   1      18.279  11.356  10.427  0.00  0.00    +0.002 C 
ATOM     69  CD2 LEU A   1      18.763  11.961  11.746  0.00  0.00    +0.000 C 
ATOM     70  CD1 LEU A   1      19.223  11.758   9.308  0.00  0.00    +0.000 C 
ENDBRANCH  67  68
ENDBRANCH  64  67
ENDBRANCH  60  64
ENDBRANCH  59  62
BRANCH  59  71
ATOM     71  CB  LEU A   2      16.990   6.735   7.007  0.00  0.00    +0.029 C 
BRANCH  71  72
ATOM     72  CG  LEU A   2      16.042   7.190   5.890  0.00  0.00    +0.002 C 
ATOM     73  CD2 LEU A   2      14.617   6.829   6.264  0.00  0.00    +0.000 C 
ATOM     74  CD1 LEU A   2      16.467   6.565   4.564  0.00  0.00    +0.000 C 
ENDBRANCH  71  72
ENDBRANCH  59  71
ENDBRANCH  55  59
ENDBRANCH  54  56
BRANCH  54  75
ATOM     75  CB  ASP A   3      18.214   7.388  12.641  0.00  0.00    +0.143 C 
BRANCH  75  76
ATOM     76  CG  ASP A   3      19.288   7.557  13.695  0.00  0.00    +0.367 C 
ATOM     77  OD2 ASP A   3      19.031   8.345  14.630  0.00  0.00    -0.246 OA
ATOM     78  OD1 ASP A   3      20.363   6.928  13.618  0.00  0.00    -0.246 OA
ENDBRANCH  75  76
ENDBRANCH  54  75
ENDBRANCH  50  54
ENDBRANCH  49  52
BRANCH  49  79
ATOM     79  CB  THR A   4      21.410   2.397  11.558  0.00  0.00    +0.137 C 
ATOM     80  CG2 THR A   4      21.069   2.237  10.082  0.00  0.00    +0.034 C 
BRANCH  79  81
ATOM     81  OG1 THR A   4      22.570   3.241  11.678  0.00  0.00    -0.382 OA
ATOM     82  HG1 THR A   4      22.804   3.345  12.634  0.00  0.00    +0.210 HD
ENDBRANCH  79  81
ENDBRANCH  49  79
ENDBRANCH  45  49
ENDBRANCH  44  47
ENDBRANCH   1  44
TORSDOF 36
REMARK  Name = ../refined-set-2016/3s45/3s45_pocket.pdb
REMARK  222 active torsions:
REMARK  status: ('A' for Active; 'I' for Inactive)
REMARK    1  A    between atoms: _1  and  _3
REMARK    2  A    between atoms: _3  and  _4
REMARK    3  A    between atoms: _3  and  _6
REMARK    4  A    between atoms: _6  and  _7
REMARK    5  A    between atoms: _7  and  _8
REMARK    6  A    between atoms: _8  and  _9
REMARK    7  A    between atoms: _18  and  _20
REMARK    8  A    between atoms: _20  and  _21
REMARK    9  A    between atoms: _20  and  _23
REMARK   10  A    between atoms: _23  and  _24
REMARK   11  A    between atoms: _27  and  _29
REMARK   12  A    between atoms: _29  and  _30
REMARK   13  A    between atoms: _29  and  _32
REMARK   14  A    between atoms: _32  and  _33
REMARK   15  A    between atoms: _36  and  _38
REMARK   16  A    between atoms: _38  and  _39
REMARK   17  A    between atoms: _38  and  _41
REMARK   18  A    between atoms: _41  and  _42
REMARK   19  A    between atoms: _45  and  _47
REMARK   20  A    between atoms: _47  and  _48
REMARK   21  A    between atoms: _47  and  _50
REMARK   22  A    between atoms: _50  and  _51
REMARK   23  A    between atoms: _54  and  _56
REMARK   24  A    between atoms: _56  and  _57
REMARK   25  A    between atoms: _59  and  _61
REMARK   26  A    between atoms: _61  and  _62
REMARK   27  A    between atoms: _65  and  _67
REMARK   28  A    between atoms: _67  and  _68
REMARK   29  A    between atoms: _67  and  _70
REMARK   30  A    between atoms: _70  and  _71
REMARK   31  A    between atoms: _74  and  _76
REMARK   32  A    between atoms: _76  and  _77
REMARK   33  A    between atoms: _76  and  _79
REMARK   34  A    between atoms: _79  and  _80
REMARK   35  A    between atoms: _83  and  _85
REMARK   36  A    between atoms: _85  and  _86
REMARK   37  A    between atoms: _85  and  _88
REMARK   38  A    between atoms: _88  and  _89
REMARK   39  A    between atoms: _91  and  _93
REMARK   40  A    between atoms: _93  and  _94
REMARK   41  A    between atoms: _93  and  _96
REMARK   42  A    between atoms: _96  and  _97
REMARK   43  A    between atoms: _100  and  _102
REMARK   44  A    between atoms: _102  and  _103
REMARK   45  A    between atoms: _102  and  _105
REMARK   46  A    between atoms: _105  and  _106
REMARK   47  A    between atoms: _106  and  _107
REMARK   48  A    between atoms: _107  and  _108
REMARK   49  A    between atoms: _108  and  _109
REMARK   50  A    between atoms: _113  and  _115
REMARK   51  A    between atoms: _115  and  _116
REMARK   52  A    between atoms: _115  and  _118
REMARK   53  A    between atoms: _118  and  _119
REMARK   54  A    between atoms: _122  and  _124
REMARK   55  A    between atoms: _124  and  _125
REMARK   56  A    between atoms: _124  and  _127
REMARK   57  A    between atoms: _130  and  _132
REMARK   58  A    between atoms: _132  and  _133
REMARK   59  A    between atoms: _135  and  _137
REMARK   60  A    between atoms: _137  and  _138
REMARK   61  A    between atoms: _140  and  _142
REMARK   62  A    between atoms: _142  and  _143
REMARK   63  A    between atoms: _142  and  _145
REMARK   64  A    between atoms: _145  and  _146
REMARK   65  A    between atoms: _149  and  _151
REMARK   66  A    between atoms: _151  and  _152
REMARK   67  A    between atoms: _154  and  _156
REMARK   68  A    between atoms: _156  and  _157
REMARK   69  A    between atoms: _159  and  _161
REMARK   70  A    between atoms: _161  and  _162
REMARK   71  A    between atoms: _161  and  _164
REMARK   72  A    between atoms: _164  and  _165
REMARK   73  A    between atoms: _168  and  _170
REMARK   74  A    between atoms: _170  and  _171
REMARK   75  A    between atoms: _170  and  _173
REMARK   76  A    between atoms: _173  and  _174
REMARK   77  A    between atoms: _177  and  _179
REMARK   78  A    between atoms: _179  and  _180
REMARK   79  A    between atoms: _179  and  _182
REMARK   80  A    between atoms: _182  and  _183
REMARK   81  A    between atoms: _183  and  _184
REMARK   82  A    between atoms: _186  and  _188
REMARK   83  A    between atoms: _188  and  _189
REMARK   84  A    between atoms: _188  and  _191
REMARK   85  A    between atoms: _191  and  _192
REMARK   86  A    between atoms: _196  and  _197
REMARK   87  A    between atoms: _202  and  _204
REMARK   88  A    between atoms: _204  and  _205
REMARK   89  A    between atoms: _204  and  _207
REMARK   90  A    between atoms: _207  and  _208
REMARK   91  A    between atoms: _211  and  _213
REMARK   92  A    between atoms: _213  and  _214
REMARK   93  A    between atoms: _213  and  _216
REMARK   94  A    between atoms: _216  and  _217
REMARK   95  A    between atoms: _222  and  _224
REMARK   96  A    between atoms: _224  and  _225
REMARK   97  A    between atoms: _224  and  _227
REMARK   98  A    between atoms: _227  and  _228
REMARK   99  A    between atoms: _231  and  _233
REMARK  100  A    between atoms: _233  and  _234
REMARK  101  A    between atoms: _233  and  _236
REMARK  102  A    between atoms: _236  and  _237
REMARK  103  A    between atoms: _243  and  _245
REMARK  104  A    between atoms: _245  and  _246
REMARK  105  A    between atoms: _248  and  _250
REMARK  106  A    between atoms: _250  and  _251
REMARK  107  A    between atoms: _250  and  _253
REMARK  108  A    between atoms: _253  and  _254
REMARK  109  A    between atoms: _254  and  _255
REMARK  110  A    between atoms: _255  and  _256
REMARK  111  A    between atoms: _265  and  _267
REMARK  112  A    between atoms: _267  and  _268
REMARK  113  A    between atoms: _267  and  _270
REMARK  114  A    between atoms: _270  and  _271
REMARK  115  A    between atoms: _276  and  _278
REMARK  116  A    between atoms: _278  and  _279
REMARK  117  A    between atoms: _278  and  _281
REMARK  118  A    between atoms: _281  and  _282
REMARK  119  A    between atoms: _282  and  _283
REMARK  120  A    between atoms: _283  and  _284
REMARK  121  A    between atoms: _293  and  _295
REMARK  122  A    between atoms: _295  and  _296
REMARK  123  A    between atoms: _295  and  _298
REMARK  124  A    between atoms: _298  and  _299
REMARK  125  A    between atoms: _302  and  _304
REMARK  126  A    between atoms: _304  and  _305
REMARK  127  A    between atoms: _304  and  _307
REMARK  128  A    between atoms: _307  and  _308
REMARK  129  A    between atoms: _311  and  _313
REMARK  130  A    between atoms: _313  and  _314
REMARK  131  A    between atoms: _313  and  _316
REMARK  132  A    between atoms: _316  and  _317
REMARK  133  A    between atoms: _320  and  _322
REMARK  134  A    between atoms: _322  and  _323
REMARK  135  A    between atoms: _322  and  _325
REMARK  136  A    between atoms: _325  and  _326
REMARK  137  A    between atoms: _329  and  _331
REMARK  138  A    between atoms: _331  and  _332
REMARK  139  A    between atoms: _334  and  _336
REMARK  140  A    between atoms: _336  and  _337
REMARK  141  A    between atoms: _340  and  _342
REMARK  142  A    between atoms: _342  and  _343
REMARK  143  A    between atoms: _342  and  _345
REMARK  144  A    between atoms: _345  and  _346
REMARK  145  A    between atoms: _349  and  _351
REMARK  146  A    between atoms: _351  and  _352
REMARK  147  A    between atoms: _351  and  _354
REMARK  148  A    between atoms: _354  and  _355
REMARK  149  A    between atoms: _355  and  _357
REMARK  150  A    between atoms: _358  and  _360
REMARK  151  A    between atoms: _360  and  _361
REMARK  152  A    between atoms: _360  and  _363
REMARK  153  A    between atoms: _363  and  _364
REMARK  154  A    between atoms: _366  and  _368
REMARK  155  A    between atoms: _368  and  _369
REMARK  156  A    between atoms: _368  and  _371
REMARK  157  A    between atoms: _371  and  _372
REMARK  158  A    between atoms: _375  and  _377
REMARK  159  A    between atoms: _377  and  _378
REMARK  160  A    between atoms: _377  and  _380
REMARK  161  A    between atoms: _380  and  _381
REMARK  162  A    between atoms: _384  and  _386
REMARK  163  A    between atoms: _386  and  _387
REMARK  164  A    between atoms: _386  and  _389
REMARK  165  A    between atoms: _392  and  _394
REMARK  166  A    between atoms: _394  and  _395
REMARK  167  A    between atoms: _397  and  _399
REMARK  168  A    between atoms: _399  and  _400
REMARK  169  A    between atoms: _402  and  _404
REMARK  170  A    between atoms: _404  and  _405
REMARK  171  A    between atoms: _404  and  _407
REMARK  172  A    between atoms: _407  and  _408
REMARK  173  A    between atoms: _411  and  _413
REMARK  174  A    between atoms: _413  and  _414
REMARK  175  A    between atoms: _416  and  _418
REMARK  176  A    between atoms: _418  and  _419
REMARK  177  A    between atoms: _421  and  _423
REMARK  178  A    between atoms: _423  and  _424
REMARK  179  A    between atoms: _423  and  _426
REMARK  180  A    between atoms: _426  and  _427
REMARK  181  A    between atoms: _430  and  _432
REMARK  182  A    between atoms: _432  and  _433
REMARK  183  A    between atoms: _432  and  _435
REMARK  184  A    between atoms: _435  and  _436
REMARK  185  A    between atoms: _439  and  _441
REMARK  186  A    between atoms: _441  and  _442
REMARK  187  A    between atoms: _441  and  _444
REMARK  188  A    between atoms: _444  and  _445
REMARK  189  A    between atoms: _445  and  _446
REMARK  190  A    between atoms: _448  and  _450
REMARK  191  A    between atoms: _450  and  _451
REMARK  192  A    between atoms: _450  and  _453
REMARK  193  A    between atoms: _453  and  _454
REMARK  194  A    between atoms: _458  and  _459
REMARK  195  A    between atoms: _464  and  _466
REMARK  196  A    between atoms: _466  and  _467
REMARK  197  A    between atoms: _466  and  _469
REMARK  198  A    between atoms: _469  and  _470
REMARK  199  A    between atoms: _473  and  _475
REMARK  200  A    between atoms: _475  and  _476
REMARK  201  A    between atoms: _475  and  _478
REMARK  202  A    between atoms: _478  and  _479
REMARK  203  A    between atoms: _484  and  _486
REMARK  204  A    between atoms: _486  and  _487
REMARK  205  A    between atoms: _486  and  _489
REMARK  206  A    between atoms: _489  and  _490
REMARK  207  A    between atoms: _493  and  _495
REMARK  208  A    between atoms: _495  and  _496
REMARK  209  A    between atoms: _495  and  _498
REMARK  210  A    between atoms: _498  and  _499
REMARK  211  A    between atoms: _505  and  _507
REMARK  212  A    between atoms: _507  and  _508
REMARK  213  A    between atoms: _510  and  _512
REMARK  214  A    between atoms: _512  and  _513
REMARK  215  A    between atoms: _512  and  _515
REMARK  216  A    between atoms: _515  and  _516
REMARK  217  A    between atoms: _516  and  _517
REMARK  218  A    between atoms: _517  and  _518
REMARK  219  A    between atoms: _527  and  _529
REMARK  220  A    between atoms: _529  and  _530
REMARK  221  A    between atoms: _529  and  _532
REMARK  222  A    between atoms: _532  and  _533
REMARK                            x       y       z     vdW  Elec       q    Type
REMARK                         _______ _______ _______ _____ _____    ______ ____
ROOT
ATOM      1  C   VAL A   3      14.686   9.269  26.018  0.00  0.00    +0.241 C 
ATOM      2  O   VAL A   3      14.580  10.456  26.288  0.00  0.00    -0.273 OA
ATOM      3  N   GLY A   4      15.875   8.678  25.990  0.00  0.00    -0.295 N 
ATOM      4  H   GLY A   4      15.950   7.667  25.758  0.00  0.00    +0.150 HD
ENDROOT
BRANCH   3   5
ATOM      5  CA  GLY A   4      17.080   9.454  26.286  0.00  0.00    +0.176 C 
BRANCH   5   6
ATOM      6  C   GLY A   4      18.107   9.362  25.171  0.00  0.00    +0.243 C 
ATOM      7  N   GLY A   5      18.905  10.400  25.006  0.00  0.00    -0.295 N 
ATOM      8  H   GLY A   5      18.744  11.241  25.596  0.00  0.00    +0.150 HD
ATOM      9  O   GLY A   4      18.235   8.361  24.445  0.00  0.00    -0.273 OA
BRANCH   7  10
ATOM     10  CA  GLY A   5      19.993  10.433  24.049  0.00  0.00    +0.176 C 
BRANCH  10  11
ATOM     11  C   GLY A   5      20.993  11.500  24.501  0.00  0.00    +0.243 C 
ATOM     12  O   GLY A   5      21.097  11.813  25.682  0.00  0.00    -0.273 OA
ATOM     13  N   ILE A   6      21.689  12.038  23.496  0.00  0.00    -0.297 N 
ATOM     14  H   ILE A   6      21.551  11.722  22.515  0.00  0.00    +0.150 HD
BRANCH  13  15
ATOM     15  CA  ILE A   6      22.653  13.088  23.827  0.00  0.00    +0.149 C 
BRANCH  15  16
ATOM     16  C   ILE A   6      21.863  14.342  24.184  0.00  0.00    +0.241 C 
ATOM     17  N   GLY A   7      22.278  14.882  25.319  0.00  0.00    -0.295 N 
ATOM     18  H   GLY A   7      22.990  14.390  25.895  0.00  0.00    +0.150 HD
ATOM     19  O   ILE A   6      20.971  14.764  23.451  0.00  0.00    -0.273 OA
BRANCH  17  20
ATOM     20  CA  GLY A   7      21.742  16.165  25.767  0.00  0.00    +0.176 C 
BRANCH  20  21
ATOM     21  C   GLY A   7      20.588  15.924  26.703  0.00  0.00    +0.243 C 
ATOM     22  O   GLY A   7      20.145  16.895  27.299  0.00  0.00    -0.273 OA
ATOM     23  N   GLY A   8      20.133  14.678  26.875  0.00  0.00    -0.296 N 
ATOM     24  H   GLY A   8      20.463  13.897  26.273  0.00  0.00    +0.150 HD
BRANCH  23  25
ATOM     25  CA  GLY A   8      19.152  14.452  27.943  0.00  0.00    +0.163 C 
BRANCH  25  26
ATOM     26  C   GLY A   8      18.029  13.531  27.509  0.00  0.00    +0.229 C 
ATOM     27  O   GLY A   8      18.243  12.637  26.676  0.00  0.00    -0.286 OA
ENDBRANCH  25  26
ENDBRANCH  23  25
ENDBRANCH  20  21
ENDBRANCH  17  20
ENDBRANCH  15  16
BRANCH  15  28
ATOM     28  CB  ILE A   6      23.641  13.347  22.681  0.00  0.00    +0.027 C 
ATOM     29  CG2 ILE A   6      24.384  14.663  22.794  0.00  0.00    +0.002 C 
BRANCH  28  30
ATOM     30  CG1 ILE A   6      24.633  12.178  22.524  0.00  0.00    +0.002 C 
ATOM     31  CD1 ILE A   6      25.361  12.177  21.200  0.00  0.00    +0.000 C 
ENDBRANCH  28  30
ENDBRANCH  15  28
ENDBRANCH  13  15
ENDBRANCH  10  11
ENDBRANCH   7  10
ENDBRANCH   5   6
ENDBRANCH   3   5
BRANCH   1  32
ATOM     32  CA  VAL A   3      13.478   8.413  25.680  0.00  0.00    +0.149 C 
BRANCH  32  35
ATOM     33  C   ILE A   2      11.712   8.033  27.283  0.00  0.00    +0.241 C 
ATOM     34  O   ILE A   2      12.025   6.851  27.490  0.00  0.00    -0.273 OA
ATOM     35  N   VAL A   3      12.274   8.859  26.380  0.00  0.00    -0.297 N 
ATOM     36  H   VAL A   3      11.861   9.793  26.185  0.00  0.00    +0.150 HD
BRANCH  33  37
ATOM     37  CA  ILE A   2      10.574   8.599  28.133  0.00  0.00    +0.148 C 
BRANCH  37  39
ATOM     38  C   LYS A   1       8.304   8.014  27.499  0.00  0.00    +0.238 C 
ATOM     39  N   ILE A   2       9.457   7.672  28.059  0.00  0.00    -0.297 N 
ATOM     40  H   ILE A   2       9.564   6.716  28.455  0.00  0.00    +0.150 HD
ATOM     41  O   LYS A   1       8.036   9.137  27.096  0.00  0.00    -0.274 OA
BRANCH  38  42
ATOM     42  CA  LYS A   1       7.253   6.911  27.355  0.00  0.00    +0.145 C 
BRANCH  42  43
ATOM     43  N   LYS A   1       5.929   7.488  27.220  0.00  0.00    -0.238 NA
ATOM     44  H   LYS A   1       5.827   8.298  26.576  0.00  0.00    +0.142 HD
ENDBRANCH  42  43
BRANCH  42  45
ATOM     45  CB  LYS A   1       7.676   6.071  26.154  0.00  0.00    +0.026 C 
BRANCH  45  46
ATOM     46  CG  LYS A   1       6.716   5.004  25.686  0.00  0.00    -0.000 C 
BRANCH  46  47
ATOM     47  CD  LYS A   1       7.463   4.046  24.766  0.00  0.00    -0.024 C 
BRANCH  47  48
ATOM     48  CE  LYS A   1       8.954   4.077  25.123  0.00  0.00    -0.086 C 
BRANCH  48  49
ATOM     49  NZ  LYS A   1       9.728   3.109  24.297  0.00  0.00    +0.380 N 
ATOM     50  HZ1 LYS A   1      10.733   3.154  24.562  0.00  0.00    -0.089 HD
ATOM     51  HZ2 LYS A   1       9.367   2.148  24.463  0.00  0.00    -0.089 HD
ATOM     52  HZ3 LYS A   1       9.623   3.352  23.291  0.00  0.00    -0.089 HD
ENDBRANCH  48  49
ENDBRANCH  47  48
ENDBRANCH  46  47
ENDBRANCH  45  46
ENDBRANCH  42  45
ENDBRANCH  38  42
ENDBRANCH  37  39
BRANCH  37  53
ATOM     53  CB  ILE A   2      11.023   8.881  29.576  0.00  0.00    +0.027 C 
ATOM     54  CG2 ILE A   2      12.355   9.629  29.571  0.00  0.00    +0.002 C 
BRANCH  53  55
ATOM     55  CG1 ILE A   2       9.990   9.629  30.423  0.00  0.00    +0.002 C 
ATOM     56  CD1 ILE A   2      10.103   9.385  31.927  0.00  0.00    +0.000 C 
ENDBRANCH  53  55
ENDBRANCH  37  53
ENDBRANCH  33  37
ENDBRANCH  32  35
BRANCH  32  57
ATOM     57  CB  VAL A   3      13.314   8.388  24.154  0.00  0.00    +0.027 C 
ATOM     58  CG2 VAL A   3      12.107   7.519  23.780  0.00  0.00    +0.002 C 
ATOM     59  CG1 VAL A   3      13.199   9.777  23.552  0.00  0.00    +0.002 C 
ENDBRANCH  32  57
ENDBRANCH   1  32
TORSDOF 26
REMARK  Name = ../refined-set-2016/3s45/3s45_pocket.pdb
REMARK  222 active torsions:
REMARK  status: ('A' for Active; 'I' for Inactive)
REMARK    1  A    between atoms: _1  and  _3
REMARK    2  A    between atoms: _3  and  _4
REMARK    3  A    between atoms: _3  and  _6
REMARK    4  A    between atoms: _6  and  _7
REMARK    5  A    between atoms: _7  and  _8
REMARK    6  A    between atoms: _8  and  _9
REMARK    7  A    between atoms: _18  and  _20
REMARK    8  A    between atoms: _20  and  _21
REMARK    9  A    between atoms: _20  and  _23
REMARK   10  A    between atoms: _23  and  _24
REMARK   11  A    between atoms: _27  and  _29
REMARK   12  A    between atoms: _29  and  _30
REMARK   13  A    between atoms: _29  and  _32
REMARK   14  A    between atoms: _32  and  _33
REMARK   15  A    between atoms: _36  and  _38
REMARK   16  A    between atoms: _38  and  _39
REMARK   17  A    between atoms: _38  and  _41
REMARK   18  A    between atoms: _41  and  _42
REMARK   19  A    between atoms: _45  and  _47
REMARK   20  A    between atoms: _47  and  _48
REMARK   21  A    between atoms: _47  and  _50
REMARK   22  A    between atoms: _50  and  _51
REMARK   23  A    between atoms: _54  and  _56
REMARK   24  A    between atoms: _56  and  _57
REMARK   25  A    between atoms: _59  and  _61
REMARK   26  A    between atoms: _61  and  _62
REMARK   27  A    between atoms: _65  and  _67
REMARK   28  A    between atoms: _67  and  _68
REMARK   29  A    between atoms: _67  and  _70
REMARK   30  A    between atoms: _70  and  _71
REMARK   31  A    between atoms: _74  and  _76
REMARK   32  A    between atoms: _76  and  _77
REMARK   33  A    between atoms: _76  and  _79
REMARK   34  A    between atoms: _79  and  _80
REMARK   35  A    between atoms: _83  and  _85
REMARK   36  A    between atoms: _85  and  _86
REMARK   37  A    between atoms: _85  and  _88
REMARK   38  A    between atoms: _88  and  _89
REMARK   39  A    between atoms: _91  and  _93
REMARK   40  A    between atoms: _93  and  _94
REMARK   41  A    between atoms: _93  and  _96
REMARK   42  A    between atoms: _96  and  _97
REMARK   43  A    between atoms: _100  and  _102
REMARK   44  A    between atoms: _102  and  _103
REMARK   45  A    between atoms: _102  and  _105
REMARK   46  A    between atoms: _105  and  _106
REMARK   47  A    between atoms: _106  and  _107
REMARK   48  A    between atoms: _107  and  _108
REMARK   49  A    between atoms: _108  and  _109
REMARK   50  A    between atoms: _113  and  _115
REMARK   51  A    between atoms: _115  and  _116
REMARK   52  A    between atoms: _115  and  _118
REMARK   53  A    between atoms: _118  and  _119
REMARK   54  A    between atoms: _122  and  _124
REMARK   55  A    between atoms: _124  and  _125
REMARK   56  A    between atoms: _124  and  _127
REMARK   57  A    between atoms: _130  and  _132
REMARK   58  A    between atoms: _132  and  _133
REMARK   59  A    between atoms: _135  and  _137
REMARK   60  A    between atoms: _137  and  _138
REMARK   61  A    between atoms: _140  and  _142
REMARK   62  A    between atoms: _142  and  _143
REMARK   63  A    between atoms: _142  and  _145
REMARK   64  A    between atoms: _145  and  _146
REMARK   65  A    between atoms: _149  and  _151
REMARK   66  A    between atoms: _151  and  _152
REMARK   67  A    between atoms: _154  and  _156
REMARK   68  A    between atoms: _156  and  _157
REMARK   69  A    between atoms: _159  and  _161
REMARK   70  A    between atoms: _161  and  _162
REMARK   71  A    between atoms: _161  and  _164
REMARK   72  A    between atoms: _164  and  _165
REMARK   73  A    between atoms: _168  and  _170
REMARK   74  A    between atoms: _170  and  _171
REMARK   75  A    between atoms: _170  and  _173
REMARK   76  A    between atoms: _173  and  _174
REMARK   77  A    between atoms: _177  and  _179
REMARK   78  A    between atoms: _179  and  _180
REMARK   79  A    between atoms: _179  and  _182
REMARK   80  A    between atoms: _182  and  _183
REMARK   81  A    between atoms: _183  and  _184
REMARK   82  A    between atoms: _186  and  _188
REMARK   83  A    between atoms: _188  and  _189
REMARK   84  A    between atoms: _188  and  _191
REMARK   85  A    between atoms: _191  and  _192
REMARK   86  A    between atoms: _196  and  _197
REMARK   87  A    between atoms: _202  and  _204
REMARK   88  A    between atoms: _204  and  _205
REMARK   89  A    between atoms: _204  and  _207
REMARK   90  A    between atoms: _207  and  _208
REMARK   91  A    between atoms: _211  and  _213
REMARK   92  A    between atoms: _213  and  _214
REMARK   93  A    between atoms: _213  and  _216
REMARK   94  A    between atoms: _216  and  _217
REMARK   95  A    between atoms: _222  and  _224
REMARK   96  A    between atoms: _224  and  _225
REMARK   97  A    between atoms: _224  and  _227
REMARK   98  A    between atoms: _227  and  _228
REMARK   99  A    between atoms: _231  and  _233
REMARK  100  A    between atoms: _233  and  _234
REMARK  101  A    between atoms: _233  and  _236
REMARK  102  A    between atoms: _236  and  _237
REMARK  103  A    between atoms: _243  and  _245
REMARK  104  A    between atoms: _245  and  _246
REMARK  105  A    between atoms: _248  and  _250
REMARK  106  A    between atoms: _250  and  _251
REMARK  107  A    between atoms: _250  and  _253
REMARK  108  A    between atoms: _253  and  _254
REMARK  109  A    between atoms: _254  and  _255
REMARK  110  A    between atoms: _255  and  _256
REMARK  111  A    between atoms: _265  and  _267
REMARK  112  A    between atoms: _267  and  _268
REMARK  113  A    between atoms: _267  and  _270
REMARK  114  A    between atoms: _270  and  _271
REMARK  115  A    between atoms: _276  and  _278
REMARK  116  A    between atoms: _278  and  _279
REMARK  117  A    between atoms: _278  and  _281
REMARK  118  A    between atoms: _281  and  _282
REMARK  119  A    between atoms: _282  and  _283
REMARK  120  A    between atoms: _283  and  _284
REMARK  121  A    between atoms: _293  and  _295
REMARK  122  A    between atoms: _295  and  _296
REMARK  123  A    between atoms: _295  and  _298
REMARK  124  A    between atoms: _298  and  _299
REMARK  125  A    between atoms: _302  and  _304
REMARK  126  A    between atoms: _304  and  _305
REMARK  127  A    between atoms: _304  and  _307
REMARK  128  A    between atoms: _307  and  _308
REMARK  129  A    between atoms: _311  and  _313
REMARK  130  A    between atoms: _313  and  _314
REMARK  131  A    between atoms: _313  and  _316
REMARK  132  A    between atoms: _316  and  _317
REMARK  133  A    between atoms: _320  and  _322
REMARK  134  A    between atoms: _322  and  _323
REMARK  135  A    between atoms: _322  and  _325
REMARK  136  A    between atoms: _325  and  _326
REMARK  137  A    between atoms: _329  and  _331
REMARK  138  A    between atoms: _331  and  _332
REMARK  139  A    between atoms: _334  and  _336
REMARK  140  A    between atoms: _336  and  _337
REMARK  141  A    between atoms: _340  and  _342
REMARK  142  A    between atoms: _342  and  _343
REMARK  143  A    between atoms: _342  and  _345
REMARK  144  A    between atoms: _345  and  _346
REMARK  145  A    between atoms: _349  and  _351
REMARK  146  A    between atoms: _351  and  _352
REMARK  147  A    between atoms: _351  and  _354
REMARK  148  A    between atoms: _354  and  _355
REMARK  149  A    between atoms: _355  and  _357
REMARK  150  A    between atoms: _358  and  _360
REMARK  151  A    between atoms: _360  and  _361
REMARK  152  A    between atoms: _360  and  _363
REMARK  153  A    between atoms: _363  and  _364
REMARK  154  A    between atoms: _366  and  _368
REMARK  155  A    between atoms: _368  and  _369
REMARK  156  A    between atoms: _368  and  _371
REMARK  157  A    between atoms: _371  and  _372
REMARK  158  A    between atoms: _375  and  _377
REMARK  159  A    between atoms: _377  and  _378
REMARK  160  A    between atoms: _377  and  _380
REMARK  161  A    between atoms: _380  and  _381
REMARK  162  A    between atoms: _384  and  _386
REMARK  163  A    between atoms: _386  and  _387
REMARK  164  A    between atoms: _386  and  _389
REMARK  165  A    between atoms: _392  and  _394
REMARK  166  A    between atoms: _394  and  _395
REMARK  167  A    between atoms: _397  and  _399
REMARK  168  A    between atoms: _399  and  _400
REMARK  169  A    between atoms: _402  and  _404
REMARK  170  A    between atoms: _404  and  _405
REMARK  171  A    between atoms: _404  and  _407
REMARK  172  A    between atoms: _407  and  _408
REMARK  173  A    between atoms: _411  and  _413
REMARK  174  A    between atoms: _413  and  _414
REMARK  175  A    between atoms: _416  and  _418
REMARK  176  A    between atoms: _418  and  _419
REMARK  177  A    between atoms: _421  and  _423
REMARK  178  A    between atoms: _423  and  _424
REMARK  179  A    between atoms: _423  and  _426
REMARK  180  A    between atoms: _426  and  _427
REMARK  181  A    between atoms: _430  and  _432
REMARK  182  A    between atoms: _432  and  _433
REMARK  183  A    between atoms: _432  and  _435
REMARK  184  A    between atoms: _435  and  _436
REMARK  185  A    between atoms: _439  and  _441
REMARK  186  A    between atoms: _441  and  _442
REMARK  187  A    between atoms: _441  and  _444
REMARK  188  A    between atoms: _444  and  _445
REMARK  189  A    between atoms: _445  and  _446
REMARK  190  A    between atoms: _448  and  _450
REMARK  191  A    between atoms: _450  and  _451
REMARK  192  A    between atoms: _450  and  _453
REMARK  193  A    between atoms: _453  and  _454
REMARK  194  A    between atoms: _458  and  _459
REMARK  195  A    between atoms: _464  and  _466
REMARK  196  A    between atoms: _466  and  _467
REMARK  197  A    between atoms: _466  and  _469
REMARK  198  A    between atoms: _469  and  _470
REMARK  199  A    between atoms: _473  and  _475
REMARK  200  A    between atoms: _475  and  _476
REMARK  201  A    between atoms: _475  and  _478
REMARK  202  A    between atoms: _478  and  _479
REMARK  203  A    between atoms: _484  and  _486
REMARK  204  A    between atoms: _486  and  _487
REMARK  205  A    between atoms: _486  and  _489
REMARK  206  A    between atoms: _489  and  _490
REMARK  207  A    between atoms: _493  and  _495
REMARK  208  A    between atoms: _495  and  _496
REMARK  209  A    between atoms: _495  and  _498
REMARK  210  A    between atoms: _498  and  _499
REMARK  211  A    between atoms: _505  and  _507
REMARK  212  A    between atoms: _507  and  _508
REMARK  213  A    between atoms: _510  and  _512
REMARK  214  A    between atoms: _512  and  _513
REMARK  215  A    between atoms: _512  and  _515
REMARK  216  A    between atoms: _515  and  _516
REMARK  217  A    between atoms: _516  and  _517
REMARK  218  A    between atoms: _517  and  _518
REMARK  219  A    between atoms: _527  and  _529
REMARK  220  A    between atoms: _529  and  _530
REMARK  221  A    between atoms: _529  and  _532
REMARK  222  A    between atoms: _532  and  _533
REMARK                            x       y       z     vdW  Elec       q    Type
REMARK                         _______ _______ _______ _____ _____    ______ ____
ROOT
ATOM      1  CA  ILE A   1      12.310  13.785  26.397  0.00  0.00    +0.133 C 
ENDROOT
BRANCH   1   2
ATOM      2  N   ILE A   1      13.573  13.141  26.691  0.00  0.00    -0.239 NA
ATOM      3  H   ILE A   1      13.735  12.165  26.372  0.00  0.00    +0.142 HD
ENDBRANCH   1   2
BRANCH   1   4
ATOM      4  C   ILE A   1      11.110  12.853  26.630  0.00  0.00    +0.224 C 
ATOM      5  O   ILE A   1      11.252  11.638  26.511  0.00  0.00    -0.287 OA
ENDBRANCH   1   4
BRANCH   1   6
ATOM      6  CB  ILE A   1      12.220  14.265  24.940  0.00  0.00    +0.023 C 
ATOM      7  CG2 ILE A   1      13.261  15.312  24.591  0.00  0.00    +0.002 C 
BRANCH   6   8
ATOM      8  CG1 ILE A   1      12.289  13.073  23.980  0.00  0.00    +0.002 C 
ATOM      9  CD1 ILE A   1      12.238  13.534  22.547  0.00  0.00    +0.000 C 
ENDBRANCH   6   8
ENDBRANCH   1   6
TORSDOF 4
REMARK  Name = ../refined-set-2016/3s45/3s45_pocket.pdb
REMARK  222 active torsions:
REMARK  status: ('A' for Active; 'I' for Inactive)
REMARK    1  A    between atoms: _1  and  _3
REMARK    2  A    between atoms: _3  and  _4
REMARK    3  A    between atoms: _3  and  _6
REMARK    4  A    between atoms: _6  and  _7
REMARK    5  A    between atoms: _7  and  _8
REMARK    6  A    between atoms: _8  and  _9
REMARK    7  A    between atoms: _18  and  _20
REMARK    8  A    between atoms: _20  and  _21
REMARK    9  A    between atoms: _20  and  _23
REMARK   10  A    between atoms: _23  and  _24
REMARK   11  A    between atoms: _27  and  _29
REMARK   12  A    between atoms: _29  and  _30
REMARK   13  A    between atoms: _29  and  _32
REMARK   14  A    between atoms: _32  and  _33
REMARK   15  A    between atoms: _36  and  _38
REMARK   16  A    between atoms: _38  and  _39
REMARK   17  A    between atoms: _38  and  _41
REMARK   18  A    between atoms: _41  and  _42
REMARK   19  A    between atoms: _45  and  _47
REMARK   20  A    between atoms: _47  and  _48
REMARK   21  A    between atoms: _47  and  _50
REMARK   22  A    between atoms: _50  and  _51
REMARK   23  A    between atoms: _54  and  _56
REMARK   24  A    between atoms: _56  and  _57
REMARK   25  A    between atoms: _59  and  _61
REMARK   26  A    between atoms: _61  and  _62
REMARK   27  A    between atoms: _65  and  _67
REMARK   28  A    between atoms: _67  and  _68
REMARK   29  A    between atoms: _67  and  _70
REMARK   30  A    between atoms: _70  and  _71
REMARK   31  A    between atoms: _74  and  _76
REMARK   32  A    between atoms: _76  and  _77
REMARK   33  A    between atoms: _76  and  _79
REMARK   34  A    between atoms: _79  and  _80
REMARK   35  A    between atoms: _83  and  _85
REMARK   36  A    between atoms: _85  and  _86
REMARK   37  A    between atoms: _85  and  _88
REMARK   38  A    between atoms: _88  and  _89
REMARK   39  A    between atoms: _91  and  _93
REMARK   40  A    between atoms: _93  and  _94
REMARK   41  A    between atoms: _93  and  _96
REMARK   42  A    between atoms: _96  and  _97
REMARK   43  A    between atoms: _100  and  _102
REMARK   44  A    between atoms: _102  and  _103
REMARK   45  A    between atoms: _102  and  _105
REMARK   46  A    between atoms: _105  and  _106
REMARK   47  A    between atoms: _106  and  _107
REMARK   48  A    between atoms: _107  and  _108
REMARK   49  A    between atoms: _108  and  _109
REMARK   50  A    between atoms: _113  and  _115
REMARK   51  A    between atoms: _115  and  _116
REMARK   52  A    between atoms: _115  and  _118
REMARK   53  A    between atoms: _118  and  _119
REMARK   54  A    between atoms: _122  and  _124
REMARK   55  A    between atoms: _124  and  _125
REMARK   56  A    between atoms: _124  and  _127
REMARK   57  A    between atoms: _130  and  _132
REMARK   58  A    between atoms: _132  and  _133
REMARK   59  A    between atoms: _135  and  _137
REMARK   60  A    between atoms: _137  and  _138
REMARK   61  A    between atoms: _140  and  _142
REMARK   62  A    between atoms: _142  and  _143
REMARK   63  A    between atoms: _142  and  _145
REMARK   64  A    between atoms: _145  and  _146
REMARK   65  A    between atoms: _149  and  _151
REMARK   66  A    between atoms: _151  and  _152
REMARK   67  A    between atoms: _154  and  _156
REMARK   68  A    between atoms: _156  and  _157
REMARK   69  A    between atoms: _159  and  _161
REMARK   70  A    between atoms: _161  and  _162
REMARK   71  A    between atoms: _161  and  _164
REMARK   72  A    between atoms: _164  and  _165
REMARK   73  A    between atoms: _168  and  _170
REMARK   74  A    between atoms: _170  and  _171
REMARK   75  A    between atoms: _170  and  _173
REMARK   76  A    between atoms: _173  and  _174
REMARK   77  A    between atoms: _177  and  _179
REMARK   78  A    between atoms: _179  and  _180
REMARK   79  A    between atoms: _179  and  _182
REMARK   80  A    between atoms: _182  and  _183
REMARK   81  A    between atoms: _183  and  _184
REMARK   82  A    between atoms: _186  and  _188
REMARK   83  A    between atoms: _188  and  _189
REMARK   84  A    between atoms: _188  and  _191
REMARK   85  A    between atoms: _191  and  _192
REMARK   86  A    between atoms: _196  and  _197
REMARK   87  A    between atoms: _202  and  _204
REMARK   88  A    between atoms: _204  and  _205
REMARK   89  A    between atoms: _204  and  _207
REMARK   90  A    between atoms: _207  and  _208
REMARK   91  A    between atoms: _211  and  _213
REMARK   92  A    between atoms: _213  and  _214
REMARK   93  A    between atoms: _213  and  _216
REMARK   94  A    between atoms: _216  and  _217
REMARK   95  A    between atoms: _222  and  _224
REMARK   96  A    between atoms: _224  and  _225
REMARK   97  A    between atoms: _224  and  _227
REMARK   98  A    between atoms: _227  and  _228
REMARK   99  A    between atoms: _231  and  _233
REMARK  100  A    between atoms: _233  and  _234
REMARK  101  A    between atoms: _233  and  _236
REMARK  102  A    between atoms: _236  and  _237
REMARK  103  A    between atoms: _243  and  _245
REMARK  104  A    between atoms: _245  and  _246
REMARK  105  A    between atoms: _248  and  _250
REMARK  106  A    between atoms: _250  and  _251
REMARK  107  A    between atoms: _250  and  _253
REMARK  108  A    between atoms: _253  and  _254
REMARK  109  A    between atoms: _254  and  _255
REMARK  110  A    between atoms: _255  and  _256
REMARK  111  A    between atoms: _265  and  _267
REMARK  112  A    between atoms: _267  and  _268
REMARK  113  A    between atoms: _267  and  _270
REMARK  114  A    between atoms: _270  and  _271
REMARK  115  A    between atoms: _276  and  _278
REMARK  116  A    between atoms: _278  and  _279
REMARK  117  A    between atoms: _278  and  _281
REMARK  118  A    between atoms: _281  and  _282
REMARK  119  A    between atoms: _282  and  _283
REMARK  120  A    between atoms: _283  and  _284
REMARK  121  A    between atoms: _293  and  _295
REMARK  122  A    between atoms: _295  and  _296
REMARK  123  A    between atoms: _295  and  _298
REMARK  124  A    between atoms: _298  and  _299
REMARK  125  A    between atoms: _302  and  _304
REMARK  126  A    between atoms: _304  and  _305
REMARK  127  A    between atoms: _304  and  _307
REMARK  128  A    between atoms: _307  and  _308
REMARK  129  A    between atoms: _311  and  _313
REMARK  130  A    between atoms: _313  and  _314
REMARK  131  A    between atoms: _313  and  _316
REMARK  132  A    between atoms: _316  and  _317
REMARK  133  A    between atoms: _320  and  _322
REMARK  134  A    between atoms: _322  and  _323
REMARK  135  A    between atoms: _322  and  _325
REMARK  136  A    between atoms: _325  and  _326
REMARK  137  A    between atoms: _329  and  _331
REMARK  138  A    between atoms: _331  and  _332
REMARK  139  A    between atoms: _334  and  _336
REMARK  140  A    between atoms: _336  and  _337
REMARK  141  A    between atoms: _340  and  _342
REMARK  142  A    between atoms: _342  and  _343
REMARK  143  A    between atoms: _342  and  _345
REMARK  144  A    between atoms: _345  and  _346
REMARK  145  A    between atoms: _349  and  _351
REMARK  146  A    between atoms: _351  and  _352
REMARK  147  A    between atoms: _351  and  _354
REMARK  148  A    between atoms: _354  and  _355
REMARK  149  A    between atoms: _355  and  _357
REMARK  150  A    between atoms: _358  and  _360
REMARK  151  A    between atoms: _360  and  _361
REMARK  152  A    between atoms: _360  and  _363
REMARK  153  A    between atoms: _363  and  _364
REMARK  154  A    between atoms: _366  and  _368
REMARK  155  A    between atoms: _368  and  _369
REMARK  156  A    between atoms: _368  and  _371
REMARK  157  A    between atoms: _371  and  _372
REMARK  158  A    between atoms: _375  and  _377
REMARK  159  A    between atoms: _377  and  _378
REMARK  160  A    between atoms: _377  and  _380
REMARK  161  A    between atoms: _380  and  _381
REMARK  162  A    between atoms: _384  and  _386
REMARK  163  A    between atoms: _386  and  _387
REMARK  164  A    between atoms: _386  and  _389
REMARK  165  A    between atoms: _392  and  _394
REMARK  166  A    between atoms: _394  and  _395
REMARK  167  A    between atoms: _397  and  _399
REMARK  168  A    between atoms: _399  and  _400
REMARK  169  A    between atoms: _402  and  _404
REMARK  170  A    between atoms: _404  and  _405
REMARK  171  A    between atoms: _404  and  _407
REMARK  172  A    between atoms: _407  and  _408
REMARK  173  A    between atoms: _411  and  _413
REMARK  174  A    between atoms: _413  and  _414
REMARK  175  A    between atoms: _416  and  _418
REMARK  176  A    between atoms: _418  and  _419
REMARK  177  A    between atoms: _421  and  _423
REMARK  178  A    between atoms: _423  and  _424
REMARK  179  A    between atoms: _423  and  _426
REMARK  180  A    between atoms: _426  and  _427
REMARK  181  A    between atoms: _430  and  _432
REMARK  182  A    between atoms: _432  and  _433
REMARK  183  A    between atoms: _432  and  _435
REMARK  184  A    between atoms: _435  and  _436
REMARK  185  A    between atoms: _439  and  _441
REMARK  186  A    between atoms: _441  and  _442
REMARK  187  A    between atoms: _441  and  _444
REMARK  188  A    between atoms: _444  and  _445
REMARK  189  A    between atoms: _445  and  _446
REMARK  190  A    between atoms: _448  and  _450
REMARK  191  A    between atoms: _450  and  _451
REMARK  192  A    between atoms: _450  and  _453
REMARK  193  A    between atoms: _453  and  _454
REMARK  194  A    between atoms: _458  and  _459
REMARK  195  A    between atoms: _464  and  _466
REMARK  196  A    between atoms: _466  and  _467
REMARK  197  A    between atoms: _466  and  _469
REMARK  198  A    between atoms: _469  and  _470
REMARK  199  A    between atoms: _473  and  _475
REMARK  200  A    between atoms: _475  and  _476
REMARK  201  A    between atoms: _475  and  _478
REMARK  202  A    between atoms: _478  and  _479
REMARK  203  A    between atoms: _484  and  _486
REMARK  204  A    between atoms: _486  and  _487
REMARK  205  A    between atoms: _486  and  _489
REMARK  206  A    between atoms: _489  and  _490
REMARK  207  A    between atoms: _493  and  _495
REMARK  208  A    between atoms: _495  and  _496
REMARK  209  A    between atoms: _495  and  _498
REMARK  210  A    between atoms: _498  and  _499
REMARK  211  A    between atoms: _505  and  _507
REMARK  212  A    between atoms: _507  and  _508
REMARK  213  A    between atoms: _510  and  _512
REMARK  214  A    between atoms: _512  and  _513
REMARK  215  A    between atoms: _512  and  _515
REMARK  216  A    between atoms: _515  and  _516
REMARK  217  A    between atoms: _516  and  _517
REMARK  218  A    between atoms: _517  and  _518
REMARK  219  A    between atoms: _527  and  _529
REMARK  220  A    between atoms: _529  and  _530
REMARK  221  A    between atoms: _529  and  _532
REMARK  222  A    between atoms: _532  and  _533
REMARK                            x       y       z     vdW  Elec       q    Type
REMARK                         _______ _______ _______ _____ _____    ______ ____
ROOT
ATOM      1  CA  THR A   1       7.047  11.003  24.221  0.00  0.00    +0.160 C 
ENDROOT
BRANCH   1   2
ATOM      2  N   THR A   1       7.659  11.304  25.517  0.00  0.00    -0.237 NA
ATOM      3  H   THR A   1       7.705  10.588  26.270  0.00  0.00    +0.142 HD
ENDBRANCH   1   2
BRANCH   1   4
ATOM      4  C   THR A   1       5.690  10.336  24.425  0.00  0.00    +0.227 C 
ATOM      5  O   THR A   1       5.404   9.881  25.528  0.00  0.00    -0.287 OA
ENDBRANCH   1   4
BRANCH   1   6
ATOM      6  CB  THR A   1       7.889  10.076  23.322  0.00  0.00    +0.134 C 
ATOM      7  CG2 THR A   1       9.335  10.524  23.199  0.00  0.00    +0.034 C 
BRANCH   6   8
ATOM      8  OG1 THR A   1       7.884   8.782  23.944  0.00  0.00    -0.383 OA
ATOM      9  HG1 THR A   1       8.280   8.851  24.849  0.00  0.00    +0.210 HD
ENDBRANCH   6   8
ENDBRANCH   1   6
TORSDOF 4
REMARK  Name = ../refined-set-2016/3s45/3s45_pocket.pdb
REMARK  222 active torsions:
REMARK  status: ('A' for Active; 'I' for Inactive)
REMARK    1  A    between atoms: _1  and  _3
REMARK    2  A    between atoms: _3  and  _4
REMARK    3  A    between atoms: _3  and  _6
REMARK    4  A    between atoms: _6  and  _7
REMARK    5  A    between atoms: _7  and  _8
REMARK    6  A    between atoms: _8  and  _9
REMARK    7  A    between atoms: _18  and  _20
REMARK    8  A    between atoms: _20  and  _21
REMARK    9  A    between atoms: _20  and  _23
REMARK   10  A    between atoms: _23  and  _24
REMARK   11  A    between atoms: _27  and  _29
REMARK   12  A    between atoms: _29  and  _30
REMARK   13  A    between atoms: _29  and  _32
REMARK   14  A    between atoms: _32  and  _33
REMARK   15  A    between atoms: _36  and  _38
REMARK   16  A    between atoms: _38  and  _39
REMARK   17  A    between atoms: _38  and  _41
REMARK   18  A    between atoms: _41  and  _42
REMARK   19  A    between atoms: _45  and  _47
REMARK   20  A    between atoms: _47  and  _48
REMARK   21  A    between atoms: _47  and  _50
REMARK   22  A    between atoms: _50  and  _51
REMARK   23  A    between atoms: _54  and  _56
REMARK   24  A    between atoms: _56  and  _57
REMARK   25  A    between atoms: _59  and  _61
REMARK   26  A    between atoms: _61  and  _62
REMARK   27  A    between atoms: _65  and  _67
REMARK   28  A    between atoms: _67  and  _68
REMARK   29  A    between atoms: _67  and  _70
REMARK   30  A    between atoms: _70  and  _71
REMARK   31  A    between atoms: _74  and  _76
REMARK   32  A    between atoms: _76  and  _77
REMARK   33  A    between atoms: _76  and  _79
REMARK   34  A    between atoms: _79  and  _80
REMARK   35  A    between atoms: _83  and  _85
REMARK   36  A    between atoms: _85  and  _86
REMARK   37  A    between atoms: _85  and  _88
REMARK   38  A    between atoms: _88  and  _89
REMARK   39  A    between atoms: _91  and  _93
REMARK   40  A    between atoms: _93  and  _94
REMARK   41  A    between atoms: _93  and  _96
REMARK   42  A    between atoms: _96  and  _97
REMARK   43  A    between atoms: _100  and  _102
REMARK   44  A    between atoms: _102  and  _103
REMARK   45  A    between atoms: _102  and  _105
REMARK   46  A    between atoms: _105  and  _106
REMARK   47  A    between atoms: _106  and  _107
REMARK   48  A    between atoms: _107  and  _108
REMARK   49  A    between atoms: _108  and  _109
REMARK   50  A    between atoms: _113  and  _115
REMARK   51  A    between atoms: _115  and  _116
REMARK   52  A    between atoms: _115  and  _118
REMARK   53  A    between atoms: _118  and  _119
REMARK   54  A    between atoms: _122  and  _124
REMARK   55  A    between atoms: _124  and  _125
REMARK   56  A    between atoms: _124  and  _127
REMARK   57  A    between atoms: _130  and  _132
REMARK   58  A    between atoms: _132  and  _133
REMARK   59  A    between atoms: _135  and  _137
REMARK   60  A    between atoms: _137  and  _138
REMARK   61  A    between atoms: _140  and  _142
REMARK   62  A    between atoms: _142  and  _143
REMARK   63  A    between atoms: _142  and  _145
REMARK   64  A    between atoms: _145  and  _146
REMARK   65  A    between atoms: _149  and  _151
REMARK   66  A    between atoms: _151  and  _152
REMARK   67  A    between atoms: _154  and  _156
REMARK   68  A    between atoms: _156  and  _157
REMARK   69  A    between atoms: _159  and  _161
REMARK   70  A    between atoms: _161  and  _162
REMARK   71  A    between atoms: _161  and  _164
REMARK   72  A    between atoms: _164  and  _165
REMARK   73  A    between atoms: _168  and  _170
REMARK   74  A    between atoms: _170  and  _171
REMARK   75  A    between atoms: _170  and  _173
REMARK   76  A    between atoms: _173  and  _174
REMARK   77  A    between atoms: _177  and  _179
REMARK   78  A    between atoms: _179  and  _180
REMARK   79  A    between atoms: _179  and  _182
REMARK   80  A    between atoms: _182  and  _183
REMARK   81  A    between atoms: _183  and  _184
REMARK   82  A    between atoms: _186  and  _188
REMARK   83  A    between atoms: _188  and  _189
REMARK   84  A    between atoms: _188  and  _191
REMARK   85  A    between atoms: _191  and  _192
REMARK   86  A    between atoms: _196  and  _197
REMARK   87  A    between atoms: _202  and  _204
REMARK   88  A    between atoms: _204  and  _205
REMARK   89  A    between atoms: _204  and  _207
REMARK   90  A    between atoms: _207  and  _208
REMARK   91  A    between atoms: _211  and  _213
REMARK   92  A    between atoms: _213  and  _214
REMARK   93  A    between atoms: _213  and  _216
REMARK   94  A    between atoms: _216  and  _217
REMARK   95  A    between atoms: _222  and  _224
REMARK   96  A    between atoms: _224  and  _225
REMARK   97  A    between atoms: _224  and  _227
REMARK   98  A    between atoms: _227  and  _228
REMARK   99  A    between atoms: _231  and  _233
REMARK  100  A    between atoms: _233  and  _234
REMARK  101  A    between atoms: _233  and  _236
REMARK  102  A    between atoms: _236  and  _237
REMARK  103  A    between atoms: _243  and  _245
REMARK  104  A    between atoms: _245  and  _246
REMARK  105  A    between atoms: _248  and  _250
REMARK  106  A    between atoms: _250  and  _251
REMARK  107  A    between atoms: _250  and  _253
REMARK  108  A    between atoms: _253  and  _254
REMARK  109  A    between atoms: _254  and  _255
REMARK  110  A    between atoms: _255  and  _256
REMARK  111  A    between atoms: _265  and  _267
REMARK  112  A    between atoms: _267  and  _268
REMARK  113  A    between atoms: _267  and  _270
REMARK  114  A    between atoms: _270  and  _271
REMARK  115  A    between atoms: _276  and  _278
REMARK  116  A    between atoms: _278  and  _279
REMARK  117  A    between atoms: _278  and  _281
REMARK  118  A    between atoms: _281  and  _282
REMARK  119  A    between atoms: _282  and  _283
REMARK  120  A    between atoms: _283  and  _284
REMARK  121  A    between atoms: _293  and  _295
REMARK  122  A    between atoms: _295  and  _296
REMARK  123  A    between atoms: _295  and  _298
REMARK  124  A    between atoms: _298  and  _299
REMARK  125  A    between atoms: _302  and  _304
REMARK  126  A    between atoms: _304  and  _305
REMARK  127  A    between atoms: _304  and  _307
REMARK  128  A    between atoms: _307  and  _308
REMARK  129  A    between atoms: _311  and  _313
REMARK  130  A    between atoms: _313  and  _314
REMARK  131  A    between atoms: _313  and  _316
REMARK  132  A    between atoms: _316  and  _317
REMARK  133  A    between atoms: _320  and  _322
REMARK  134  A    between atoms: _322  and  _323
REMARK  135  A    between atoms: _322  and  _325
REMARK  136  A    between atoms: _325  and  _326
REMARK  137  A    between atoms: _329  and  _331
REMARK  138  A    between atoms: _331  and  _332
REMARK  139  A    between atoms: _334  and  _336
REMARK  140  A    between atoms: _336  and  _337
REMARK  141  A    between atoms: _340  and  _342
REMARK  142  A    between atoms: _342  and  _343
REMARK  143  A    between atoms: _342  and  _345
REMARK  144  A    between atoms: _345  and  _346
REMARK  145  A    between atoms: _349  and  _351
REMARK  146  A    between atoms: _351  and  _352
REMARK  147  A    between atoms: _351  and  _354
REMARK  148  A    between atoms: _354  and  _355
REMARK  149  A    between atoms: _355  and  _357
REMARK  150  A    between atoms: _358  and  _360
REMARK  151  A    between atoms: _360  and  _361
REMARK  152  A    between atoms: _360  and  _363
REMARK  153  A    between atoms: _363  and  _364
REMARK  154  A    between atoms: _366  and  _368
REMARK  155  A    between atoms: _368  and  _369
REMARK  156  A    between atoms: _368  and  _371
REMARK  157  A    between atoms: _371  and  _372
REMARK  158  A    between atoms: _375  and  _377
REMARK  159  A    between atoms: _377  and  _378
REMARK  160  A    between atoms: _377  and  _380
REMARK  161  A    between atoms: _380  and  _381
REMARK  162  A    between atoms: _384  and  _386
REMARK  163  A    between atoms: _386  and  _387
REMARK  164  A    between atoms: _386  and  _389
REMARK  165  A    between atoms: _392  and  _394
REMARK  166  A    between atoms: _394  and  _395
REMARK  167  A    between atoms: _397  and  _399
REMARK  168  A    between atoms: _399  and  _400
REMARK  169  A    between atoms: _402  and  _404
REMARK  170  A    between atoms: _404  and  _405
REMARK  171  A    between atoms: _404  and  _407
REMARK  172  A    between atoms: _407  and  _408
REMARK  173  A    between atoms: _411  and  _413
REMARK  174  A    between atoms: _413  and  _414
REMARK  175  A    between atoms: _416  and  _418
REMARK  176  A    between atoms: _418  and  _419
REMARK  177  A    between atoms: _421  and  _423
REMARK  178  A    between atoms: _423  and  _424
REMARK  179  A    between atoms: _423  and  _426
REMARK  180  A    between atoms: _426  and  _427
REMARK  181  A    between atoms: _430  and  _432
REMARK  182  A    between atoms: _432  and  _433
REMARK  183  A    between atoms: _432  and  _435
REMARK  184  A    between atoms: _435  and  _436
REMARK  185  A    between atoms: _439  and  _441
REMARK  186  A    between atoms: _441  and  _442
REMARK  187  A    between atoms: _441  and  _444
REMARK  188  A    between atoms: _444  and  _445
REMARK  189  A    between atoms: _445  and  _446
REMARK  190  A    between atoms: _448  and  _450
REMARK  191  A    between atoms: _450  and  _451
REMARK  192  A    between atoms: _450  and  _453
REMARK  193  A    between atoms: _453  and  _454
REMARK  194  A    between atoms: _458  and  _459
REMARK  195  A    between atoms: _464  and  _466
REMARK  196  A    between atoms: _466  and  _467
REMARK  197  A    between atoms: _466  and  _469
REMARK  198  A    between atoms: _469  and  _470
REMARK  199  A    between atoms: _473  and  _475
REMARK  200  A    between atoms: _475  and  _476
REMARK  201  A    between atoms: _475  and  _478
REMARK  202  A    between atoms: _478  and  _479
REMARK  203  A    between atoms: _484  and  _486
REMARK  204  A    between atoms: _486  and  _487
REMARK  205  A    between atoms: _486  and  _489
REMARK  206  A    between atoms: _489  and  _490
REMARK  207  A    between atoms: _493  and  _495
REMARK  208  A    between atoms: _495  and  _496
REMARK  209  A    between atoms: _495  and  _498
REMARK  210  A    between atoms: _498  and  _499
REMARK  211  A    between atoms: _505  and  _507
REMARK  212  A    between atoms: _507  and  _508
REMARK  213  A    between atoms: _510  and  _512
REMARK  214  A    between atoms: _512  and  _513
REMARK  215  A    between atoms: _512  and  _515
REMARK  216  A    between atoms: _515  and  _516
REMARK  217  A    between atoms: _516  and  _517
REMARK  218  A    between atoms: _517  and  _518
REMARK  219  A    between atoms: _527  and  _529
REMARK  220  A    between atoms: _529  and  _530
REMARK  221  A    between atoms: _529  and  _532
REMARK  222  A    between atoms: _532  and  _533
REMARK                            x       y       z     vdW  Elec       q    Type
REMARK                         _______ _______ _______ _____ _____    ______ ____
ROOT
ATOM      1  CA  MET A   1       6.290   8.245  19.054  0.00  0.00    +0.134 C 
ENDROOT
BRANCH   1   2
ATOM      2  N   MET A   1       6.415   7.367  17.891  0.00  0.00    -0.239 NA
ATOM      3  H   MET A   1       7.334   7.264  17.415  0.00  0.00    +0.142 HD
ENDBRANCH   1   2
BRANCH   1   4
ATOM      4  C   MET A   1       6.205   9.697  18.600  0.00  0.00    +0.224 C 
ATOM      5  O   MET A   1       6.832  10.059  17.602  0.00  0.00    -0.287 OA
ENDBRANCH   1   4
BRANCH   1   6
ATOM      6  CB  MET A   1       7.508   8.085  19.963  0.00  0.00    +0.037 C 
BRANCH   6   7
ATOM      7  CG  MET A   1       7.824   6.632  20.278  0.00  0.00    +0.059 C 
BRANCH   7   8
ATOM      8  SD  MET A   1       9.004   6.484  21.636  0.00  0.00    -0.139 S 
ATOM      9  CE  MET A   1       8.927   4.701  21.887  0.00  0.00    +0.069 C 
ENDBRANCH   7   8
ENDBRANCH   6   7
ENDBRANCH   1   6
TORSDOF 5
REMARK  Name = ../refined-set-2016/3s45/3s45_pocket.pdb
REMARK  222 active torsions:
REMARK  status: ('A' for Active; 'I' for Inactive)
REMARK    1  A    between atoms: _1  and  _3
REMARK    2  A    between atoms: _3  and  _4
REMARK    3  A    between atoms: _3  and  _6
REMARK    4  A    between atoms: _6  and  _7
REMARK    5  A    between atoms: _7  and  _8
REMARK    6  A    between atoms: _8  and  _9
REMARK    7  A    between atoms: _18  and  _20
REMARK    8  A    between atoms: _20  and  _21
REMARK    9  A    between atoms: _20  and  _23
REMARK   10  A    between atoms: _23  and  _24
REMARK   11  A    between atoms: _27  and  _29
REMARK   12  A    between atoms: _29  and  _30
REMARK   13  A    between atoms: _29  and  _32
REMARK   14  A    between atoms: _32  and  _33
REMARK   15  A    between atoms: _36  and  _38
REMARK   16  A    between atoms: _38  and  _39
REMARK   17  A    between atoms: _38  and  _41
REMARK   18  A    between atoms: _41  and  _42
REMARK   19  A    between atoms: _45  and  _47
REMARK   20  A    between atoms: _47  and  _48
REMARK   21  A    between atoms: _47  and  _50
REMARK   22  A    between atoms: _50  and  _51
REMARK   23  A    between atoms: _54  and  _56
REMARK   24  A    between atoms: _56  and  _57
REMARK   25  A    between atoms: _59  and  _61
REMARK   26  A    between atoms: _61  and  _62
REMARK   27  A    between atoms: _65  and  _67
REMARK   28  A    between atoms: _67  and  _68
REMARK   29  A    between atoms: _67  and  _70
REMARK   30  A    between atoms: _70  and  _71
REMARK   31  A    between atoms: _74  and  _76
REMARK   32  A    between atoms: _76  and  _77
REMARK   33  A    between atoms: _76  and  _79
REMARK   34  A    between atoms: _79  and  _80
REMARK   35  A    between atoms: _83  and  _85
REMARK   36  A    between atoms: _85  and  _86
REMARK   37  A    between atoms: _85  and  _88
REMARK   38  A    between atoms: _88  and  _89
REMARK   39  A    between atoms: _91  and  _93
REMARK   40  A    between atoms: _93  and  _94
REMARK   41  A    between atoms: _93  and  _96
REMARK   42  A    between atoms: _96  and  _97
REMARK   43  A    between atoms: _100  and  _102
REMARK   44  A    between atoms: _102  and  _103
REMARK   45  A    between atoms: _102  and  _105
REMARK   46  A    between atoms: _105  and  _106
REMARK   47  A    between atoms: _106  and  _107
REMARK   48  A    between atoms: _107  and  _108
REMARK   49  A    between atoms: _108  and  _109
REMARK   50  A    between atoms: _113  and  _115
REMARK   51  A    between atoms: _115  and  _116
REMARK   52  A    between atoms: _115  and  _118
REMARK   53  A    between atoms: _118  and  _119
REMARK   54  A    between atoms: _122  and  _124
REMARK   55  A    between atoms: _124  and  _125
REMARK   56  A    between atoms: _124  and  _127
REMARK   57  A    between atoms: _130  and  _132
REMARK   58  A    between atoms: _132  and  _133
REMARK   59  A    between atoms: _135  and  _137
REMARK   60  A    between atoms: _137  and  _138
REMARK   61  A    between atoms: _140  and  _142
REMARK   62  A    between atoms: _142  and  _143
REMARK   63  A    between atoms: _142  and  _145
REMARK   64  A    between atoms: _145  and  _146
REMARK   65  A    between atoms: _149  and  _151
REMARK   66  A    between atoms: _151  and  _152
REMARK   67  A    between atoms: _154  and  _156
REMARK   68  A    between atoms: _156  and  _157
REMARK   69  A    between atoms: _159  and  _161
REMARK   70  A    between atoms: _161  and  _162
REMARK   71  A    between atoms: _161  and  _164
REMARK   72  A    between atoms: _164  and  _165
REMARK   73  A    between atoms: _168  and  _170
REMARK   74  A    between atoms: _170  and  _171
REMARK   75  A    between atoms: _170  and  _173
REMARK   76  A    between atoms: _173  and  _174
REMARK   77  A    between atoms: _177  and  _179
REMARK   78  A    between atoms: _179  and  _180
REMARK   79  A    between atoms: _179  and  _182
REMARK   80  A    between atoms: _182  and  _183
REMARK   81  A    between atoms: _183  and  _184
REMARK   82  A    between atoms: _186  and  _188
REMARK   83  A    between atoms: _188  and  _189
REMARK   84  A    between atoms: _188  and  _191
REMARK   85  A    between atoms: _191  and  _192
REMARK   86  A    between atoms: _196  and  _197
REMARK   87  A    between atoms: _202  and  _204
REMARK   88  A    between atoms: _204  and  _205
REMARK   89  A    between atoms: _204  and  _207
REMARK   90  A    between atoms: _207  and  _208
REMARK   91  A    between atoms: _211  and  _213
REMARK   92  A    between atoms: _213  and  _214
REMARK   93  A    between atoms: _213  and  _216
REMARK   94  A    between atoms: _216  and  _217
REMARK   95  A    between atoms: _222  and  _224
REMARK   96  A    between atoms: _224  and  _225
REMARK   97  A    between atoms: _224  and  _227
REMARK   98  A    between atoms: _227  and  _228
REMARK   99  A    between atoms: _231  and  _233
REMARK  100  A    between atoms: _233  and  _234
REMARK  101  A    between atoms: _233  and  _236
REMARK  102  A    between atoms: _236  and  _237
REMARK  103  A    between atoms: _243  and  _245
REMARK  104  A    between atoms: _245  and  _246
REMARK  105  A    between atoms: _248  and  _250
REMARK  106  A    between atoms: _250  and  _251
REMARK  107  A    between atoms: _250  and  _253
REMARK  108  A    between atoms: _253  and  _254
REMARK  109  A    between atoms: _254  and  _255
REMARK  110  A    between atoms: _255  and  _256
REMARK  111  A    between atoms: _265  and  _267
REMARK  112  A    between atoms: _267  and  _268
REMARK  113  A    between atoms: _267  and  _270
REMARK  114  A    between atoms: _270  and  _271
REMARK  115  A    between atoms: _276  and  _278
REMARK  116  A    between atoms: _278  and  _279
REMARK  117  A    between atoms: _278  and  _281
REMARK  118  A    between atoms: _281  and  _282
REMARK  119  A    between atoms: _282  and  _283
REMARK  120  A    between atoms: _283  and  _284
REMARK  121  A    between atoms: _293  and  _295
REMARK  122  A    between atoms: _295  and  _296
REMARK  123  A    between atoms: _295  and  _298
REMARK  124  A    between atoms: _298  and  _299
REMARK  125  A    between atoms: _302  and  _304
REMARK  126  A    between atoms: _304  and  _305
REMARK  127  A    between atoms: _304  and  _307
REMARK  128  A    between atoms: _307  and  _308
REMARK  129  A    between atoms: _311  and  _313
REMARK  130  A    between atoms: _313  and  _314
REMARK  131  A    between atoms: _313  and  _316
REMARK  132  A    between atoms: _316  and  _317
REMARK  133  A    between atoms: _320  and  _322
REMARK  134  A    between atoms: _322  and  _323
REMARK  135  A    between atoms: _322  and  _325
REMARK  136  A    between atoms: _325  and  _326
REMARK  137  A    between atoms: _329  and  _331
REMARK  138  A    between atoms: _331  and  _332
REMARK  139  A    between atoms: _334  and  _336
REMARK  140  A    between atoms: _336  and  _337
REMARK  141  A    between atoms: _340  and  _342
REMARK  142  A    between atoms: _342  and  _343
REMARK  143  A    between atoms: _342  and  _345
REMARK  144  A    between atoms: _345  and  _346
REMARK  145  A    between atoms: _349  and  _351
REMARK  146  A    between atoms: _351  and  _352
REMARK  147  A    between atoms: _351  and  _354
REMARK  148  A    between atoms: _354  and  _355
REMARK  149  A    between atoms: _355  and  _357
REMARK  150  A    between atoms: _358  and  _360
REMARK  151  A    between atoms: _360  and  _361
REMARK  152  A    between atoms: _360  and  _363
REMARK  153  A    between atoms: _363  and  _364
REMARK  154  A    between atoms: _366  and  _368
REMARK  155  A    between atoms: _368  and  _369
REMARK  156  A    between atoms: _368  and  _371
REMARK  157  A    between atoms: _371  and  _372
REMARK  158  A    between atoms: _375  and  _377
REMARK  159  A    between atoms: _377  and  _378
REMARK  160  A    between atoms: _377  and  _380
REMARK  161  A    between atoms: _380  and  _381
REMARK  162  A    between atoms: _384  and  _386
REMARK  163  A    between atoms: _386  and  _387
REMARK  164  A    between atoms: _386  and  _389
REMARK  165  A    between atoms: _392  and  _394
REMARK  166  A    between atoms: _394  and  _395
REMARK  167  A    between atoms: _397  and  _399
REMARK  168  A    between atoms: _399  and  _400
REMARK  169  A    between atoms: _402  and  _404
REMARK  170  A    between atoms: _404  and  _405
REMARK  171  A    between atoms: _404  and  _407
REMARK  172  A    between atoms: _407  and  _408
REMARK  173  A    between atoms: _411  and  _413
REMARK  174  A    between atoms: _413  and  _414
REMARK  175  A    between atoms: _416  and  _418
REMARK  176  A    between atoms: _418  and  _419
REMARK  177  A    between atoms: _421  and  _423
REMARK  178  A    between atoms: _423  and  _424
REMARK  179  A    between atoms: _423  and  _426
REMARK  180  A    between atoms: _426  and  _427
REMARK  181  A    between atoms: _430  and  _432
REMARK  182  A    between atoms: _432  and  _433
REMARK  183  A    between atoms: _432  and  _435
REMARK  184  A    between atoms: _435  and  _436
REMARK  185  A    between atoms: _439  and  _441
REMARK  186  A    between atoms: _441  and  _442
REMARK  187  A    between atoms: _441  and  _444
REMARK  188  A    between atoms: _444  and  _445
REMARK  189  A    between atoms: _445  and  _446
REMARK  190  A    between atoms: _448  and  _450
REMARK  191  A    between atoms: _450  and  _451
REMARK  192  A    between atoms: _450  and  _453
REMARK  193  A    between atoms: _453  and  _454
REMARK  194  A    between atoms: _458  and  _459
REMARK  195  A    between atoms: _464  and  _466
REMARK  196  A    between atoms: _466  and  _467
REMARK  197  A    between atoms: _466  and  _469
REMARK  198  A    between atoms: _469  and  _470
REMARK  199  A    between atoms: _473  and  _475
REMARK  200  A    between atoms: _475  and  _476
REMARK  201  A    between atoms: _475  and  _478
REMARK  202  A    between atoms: _478  and  _479
REMARK  203  A    between atoms: _484  and  _486
REMARK  204  A    between atoms: _486  and  _487
REMARK  205  A    between atoms: _486  and  _489
REMARK  206  A    between atoms: _489  and  _490
REMARK  207  A    between atoms: _493  and  _495
REMARK  208  A    between atoms: _495  and  _496
REMARK  209  A    between atoms: _495  and  _498
REMARK  210  A    between atoms: _498  and  _499
REMARK  211  A    between atoms: _505  and  _507
REMARK  212  A    between atoms: _507  and  _508
REMARK  213  A    between atoms: _510  and  _512
REMARK  214  A    between atoms: _512  and  _513
REMARK  215  A    between atoms: _512  and  _515
REMARK  216  A    between atoms: _515  and  _516
REMARK  217  A    between atoms: _516  and  _517
REMARK  218  A    between atoms: _517  and  _518
REMARK  219  A    between atoms: _527  and  _529
REMARK  220  A    between atoms: _529  and  _530
REMARK  221  A    between atoms: _529  and  _532
REMARK  222  A    between atoms: _532  and  _533
REMARK                            x       y       z     vdW  Elec       q    Type
REMARK                         _______ _______ _______ _____ _____    ______ ____
ROOT
ATOM      1  C   ILE A   5      12.891   8.863  12.823  0.00  0.00    +0.241 C 
ATOM      2  O   ILE A   5      11.961   8.576  13.549  0.00  0.00    -0.273 OA
ATOM      3  N   PHE A   6      13.291   8.176  11.742  0.00  0.00    -0.297 N 
ATOM      4  H   PHE A   6      13.979   8.622  11.102  0.00  0.00    +0.150 HD
ENDROOT
BRANCH   1   5
ATOM      5  CA  ILE A   5      13.702  10.113  13.134  0.00  0.00    +0.149 C 
BRANCH   5   7
ATOM      6  C   ASN A   4      13.042  12.386  12.508  0.00  0.00    +0.241 C 
ATOM      7  N   ILE A   5      12.876  11.312  13.254  0.00  0.00    -0.297 N 
ATOM      8  H   ILE A   5      12.117  11.319  13.965  0.00  0.00    +0.150 HD
ATOM      9  O   ASN A   4      13.842  12.447  11.554  0.00  0.00    -0.273 OA
BRANCH   6  10
ATOM     10  CA  ASN A   4      12.217  13.633  12.809  0.00  0.00    +0.158 C 
BRANCH  10  13
ATOM     11  C   ILE A   3      13.719  15.004  14.116  0.00  0.00    +0.241 C 
ATOM     12  O   ILE A   3      13.534  14.298  15.102  0.00  0.00    -0.273 OA
ATOM     13  N   ASN A   4      13.096  14.773  12.958  0.00  0.00    -0.297 N 
ATOM     14  H   ASN A   4      13.244  15.418  12.156  0.00  0.00    +0.150 HD
BRANCH  11  15
ATOM     15  CA  ILE A   3      14.605  16.248  14.089  0.00  0.00    +0.149 C 
BRANCH  15  17
ATOM     16  C   PRO A   2      14.609  18.113  15.628  0.00  0.00    +0.241 C 
ATOM     17  N   ILE A   3      14.630  16.805  15.437  0.00  0.00    -0.297 N 
ATOM     18  H   ILE A   3      14.665  16.166  16.257  0.00  0.00    +0.150 HD
ATOM     19  O   PRO A   2      14.646  18.919  14.689  0.00  0.00    -0.273 OA
BRANCH  16  25
ATOM     20  C   THR A   1      12.849  17.142  18.044  0.00  0.00    +0.244 C 
ATOM     21  N   PRO A   2      14.128  17.506  18.024  0.00  0.00    -0.272 N 
ATOM     22  CD  PRO A   2      15.227  17.025  18.874  0.00  0.00    +0.094 C 
ATOM     23  CG  PRO A   2      16.432  17.758  18.340  0.00  0.00    +0.024 C 
ATOM     24  CB  PRO A   2      15.938  18.936  17.593  0.00  0.00    +0.031 C 
ATOM     25  CA  PRO A   2      14.544  18.563  17.083  0.00  0.00    +0.152 C 
ATOM     26  O   THR A   1      12.074  17.691  17.247  0.00  0.00    -0.273 OA
BRANCH  20  27
ATOM     27  CA  THR A   1      12.427  16.071  19.031  0.00  0.00    +0.172 C 
BRANCH  27  28
ATOM     28  N   THR A   1      11.102  16.346  19.580  0.00  0.00    -0.236 NA
ATOM     29  H   THR A   1      10.263  15.870  19.192  0.00  0.00    +0.142 HD
ENDBRANCH  27  28
BRANCH  27  30
ATOM     30  CB  THR A   1      12.429  14.705  18.313  0.00  0.00    +0.135 C 
ATOM     31  CG2 THR A   1      11.447  14.687  17.146  0.00  0.00    +0.034 C 
BRANCH  30  32
ATOM     32  OG1 THR A   1      13.722  14.431  17.748  0.00  0.00    -0.383 OA
ATOM     33  HG1 THR A   1      13.951  15.138  17.094  0.00  0.00    +0.210 HD
ENDBRANCH  30  32
ENDBRANCH  27  30
ENDBRANCH  20  27
ENDBRANCH  16  25
ENDBRANCH  15  17
BRANCH  15  34
ATOM     34  CB  ILE A   3      16.013  16.004  13.535  0.00  0.00    +0.027 C 
ATOM     35  CG2 ILE A   3      16.819  14.958  14.267  0.00  0.00    +0.002 C 
BRANCH  34  36
ATOM     36  CG1 ILE A   3      16.015  15.621  12.039  0.00  0.00    +0.002 C 
ATOM     37  CD1 ILE A   3      17.426  15.677  11.487  0.00  0.00    +0.000 C 
ENDBRANCH  34  36
ENDBRANCH  15  34
ENDBRANCH  11  15
ENDBRANCH  10  13
BRANCH  10  38
ATOM     38  CB  ASN A   4      11.236  13.916  11.676  0.00  0.00    +0.114 C 
BRANCH  38  39
ATOM     39  CG  ASN A   4      10.342  15.099  12.000  0.00  0.00    +0.222 C 
ATOM     40  OD1 ASN A   4      10.022  15.330  13.177  0.00  0.00    -0.275 OA
ATOM     41  ND2 ASN A   4       9.922  15.831  10.977  0.00  0.00    -0.329 N 
ATOM     42 HD21 ASN A   4       9.294  16.643  11.142  0.00  0.00    +0.145 HD
ATOM     43 HD22 ASN A   4      10.221  15.593  10.010  0.00  0.00    +0.145 HD
ENDBRANCH  38  39
ENDBRANCH  10  38
ENDBRANCH   6  10
ENDBRANCH   5   7
BRANCH   5  44
ATOM     44  CB  ILE A   5      14.496   9.932  14.452  0.00  0.00    +0.027 C 
ATOM     45  CG2 ILE A   5      15.185   8.585  14.534  0.00  0.00    +0.002 C 
BRANCH  44  46
ATOM     46  CG1 ILE A   5      15.477  11.097  14.625  0.00  0.00    +0.002 C 
ATOM     47  CD1 ILE A   5      15.887  11.359  16.046  0.00  0.00    +0.000 C 
ENDBRANCH  44  46
ENDBRANCH   5  44
ENDBRANCH   1   5
BRANCH   3  48
ATOM     48  CA  PHE A   6      12.812   6.835  11.416  0.00  0.00    +0.153 C 
BRANCH  48  49
ATOM     49  C   PHE A   6      13.935   5.854  11.791  0.00  0.00    +0.241 C 
ATOM     50  N   GLY A   7      13.675   5.156  12.894  0.00  0.00    -0.295 N 
ATOM     51  H   GLY A   7      12.736   5.285  13.322  0.00  0.00    +0.150 HD
ATOM     52  O   PHE A   6      14.967   5.792  11.121  0.00  0.00    -0.273 OA
BRANCH  50  53
ATOM     53  CA  GLY A   7      14.572   4.238  13.551  0.00  0.00    +0.176 C 
BRANCH  53  54
ATOM     54  C   GLY A   7      14.385   2.826  13.042  0.00  0.00    +0.243 C 
ATOM     55  N   ARG A   8      15.004   1.846  13.672  0.00  0.00    -0.297 N 
ATOM     56  H   ARG A   8      15.445   2.029  14.596  0.00  0.00    +0.150 HD
ATOM     57  O   GLY A   7      13.673   2.614  12.044  0.00  0.00    -0.273 OA
BRANCH  55  58
ATOM     58  CA  ARG A   8      15.080   0.505  13.091  0.00  0.00    +0.149 C 
BRANCH  58  59
ATOM     59  C   ARG A   8      13.709  -0.155  12.998  0.00  0.00    +0.241 C 
ATOM     60  N   ASN A   9      12.731   0.264  13.811  0.00  0.00    -0.298 N 
ATOM     61  H   ASN A   9      12.872   1.020  14.511  0.00  0.00    +0.150 HD
ATOM     62  O   ARG A   8      13.529  -1.051  12.150  0.00  0.00    -0.273 OA
BRANCH  60  63
ATOM     63  CA  ASN A   9      11.438  -0.427  13.639  0.00  0.00    +0.146 C 
BRANCH  63  64
ATOM     64  C   ASN A   9      10.874  -0.196  12.244  0.00  0.00    +0.227 C 
ATOM     65  O   ASN A   9      10.286  -1.080  11.627  0.00  0.00    -0.286 OA
ENDBRANCH  63  64
BRANCH  63  66
ATOM     66  CB  ASN A   9      10.461  -0.008  14.743  0.00  0.00    +0.112 C 
BRANCH  66  67
ATOM     67  CG  ASN A   9       9.999   1.433  14.606  0.00  0.00    +0.222 C 
ATOM     68  OD1 ASN A   9      10.833   2.346  14.555  0.00  0.00    -0.275 OA
ATOM     69  ND2 ASN A   9       8.682   1.602  14.538  0.00  0.00    -0.329 N 
ATOM     70 HD21 ASN A   9       8.049   0.779  14.589  0.00  0.00    +0.145 HD
ATOM     71 HD22 ASN A   9       8.285   2.558  14.434  0.00  0.00    +0.145 HD
ENDBRANCH  66  67
ENDBRANCH  63  66
ENDBRANCH  60  63
ENDBRANCH  58  59
BRANCH  58  72
ATOM     72  CB  ARG A   8      16.061  -0.401  13.870  0.00  0.00    +0.033 C 
BRANCH  72  73
ATOM     73  CG  ARG A   8      17.486   0.129  13.871  0.00  0.00    +0.045 C 
BRANCH  73  74
ATOM     74  CD  ARG A   8      18.475  -0.730  14.649  0.00  0.00    +0.174 C 
BRANCH  74  75
ATOM     75  NE  ARG A   8      18.143  -0.840  16.073  0.00  0.00    -0.265 N 
ATOM     76  HE  ARG A   8      18.426  -0.042  16.677  0.00  0.00    +0.259 HD
ATOM     77  CZ  ARG A   8      17.526  -1.838  16.673  0.00  0.00    +0.342 C 
ATOM     78  NH2 ARG A   8      17.285  -1.792  17.981  0.00  0.00    -0.292 N 
ATOM     79 HH21 ARG A   8      17.584  -0.965  18.536  0.00  0.00    +0.255 HD
ATOM     80 HH22 ARG A   8      16.798  -2.583  18.448  0.00  0.00    +0.255 HD
ATOM     81  NH1 ARG A   8      17.129  -2.950  16.025  0.00  0.00    -0.292 N 
ATOM     82 HH11 ARG A   8      16.645  -3.710  16.545  0.00  0.00    +0.255 HD
ATOM     83 HH12 ARG A   8      17.306  -3.049  15.005  0.00  0.00    +0.255 HD
ENDBRANCH  74  75
ENDBRANCH  73  74
ENDBRANCH  72  73
ENDBRANCH  58  72
ENDBRANCH  55  58
ENDBRANCH  53  54
ENDBRANCH  50  53
ENDBRANCH  48  49
BRANCH  48  84
ATOM     84  CB  PHE A   6      12.410   6.673   9.957  0.00  0.00    +0.055 C 
BRANCH  84  85
ATOM     85  CG  PHE A   6      11.007   7.157   9.624  0.00  0.00    -0.020 A 
ATOM     86  CD2 PHE A   6      10.243   7.884  10.520  0.00  0.00    -0.004 A 
ATOM     87  CE2 PHE A   6       8.979   8.312  10.178  0.00  0.00    -0.000 A 
ATOM     88  CZ  PHE A   6       8.432   8.040   8.937  0.00  0.00    -0.000 A 
ATOM     89  CE1 PHE A   6       9.180   7.309   8.033  0.00  0.00    -0.000 A 
ATOM     90  CD1 PHE A   6      10.453   6.876   8.378  0.00  0.00    -0.004 A 
ENDBRANCH  84  85
ENDBRANCH  48  84
ENDBRANCH   3  48
TORSDOF 33
REMARK  Name = ../refined-set-2016/3s45/3s45_pocket.pdb
REMARK  222 active torsions:
REMARK  status: ('A' for Active; 'I' for Inactive)
REMARK    1  A    between atoms: _1  and  _3
REMARK    2  A    between atoms: _3  and  _4
REMARK    3  A    between atoms: _3  and  _6
REMARK    4  A    between atoms: _6  and  _7
REMARK    5  A    between atoms: _7  and  _8
REMARK    6  A    between atoms: _8  and  _9
REMARK    7  A    between atoms: _18  and  _20
REMARK    8  A    between atoms: _20  and  _21
REMARK    9  A    between atoms: _20  and  _23
REMARK   10  A    between atoms: _23  and  _24
REMARK   11  A    between atoms: _27  and  _29
REMARK   12  A    between atoms: _29  and  _30
REMARK   13  A    between atoms: _29  and  _32
REMARK   14  A    between atoms: _32  and  _33
REMARK   15  A    between atoms: _36  and  _38
REMARK   16  A    between atoms: _38  and  _39
REMARK   17  A    between atoms: _38  and  _41
REMARK   18  A    between atoms: _41  and  _42
REMARK   19  A    between atoms: _45  and  _47
REMARK   20  A    between atoms: _47  and  _48
REMARK   21  A    between atoms: _47  and  _50
REMARK   22  A    between atoms: _50  and  _51
REMARK   23  A    between atoms: _54  and  _56
REMARK   24  A    between atoms: _56  and  _57
REMARK   25  A    between atoms: _59  and  _61
REMARK   26  A    between atoms: _61  and  _62
REMARK   27  A    between atoms: _65  and  _67
REMARK   28  A    between atoms: _67  and  _68
REMARK   29  A    between atoms: _67  and  _70
REMARK   30  A    between atoms: _70  and  _71
REMARK   31  A    between atoms: _74  and  _76
REMARK   32  A    between atoms: _76  and  _77
REMARK   33  A    between atoms: _76  and  _79
REMARK   34  A    between atoms: _79  and  _80
REMARK   35  A    between atoms: _83  and  _85
REMARK   36  A    between atoms: _85  and  _86
REMARK   37  A    between atoms: _85  and  _88
REMARK   38  A    between atoms: _88  and  _89
REMARK   39  A    between atoms: _91  and  _93
REMARK   40  A    between atoms: _93  and  _94
REMARK   41  A    between atoms: _93  and  _96
REMARK   42  A    between atoms: _96  and  _97
REMARK   43  A    between atoms: _100  and  _102
REMARK   44  A    between atoms: _102  and  _103
REMARK   45  A    between atoms: _102  and  _105
REMARK   46  A    between atoms: _105  and  _106
REMARK   47  A    between atoms: _106  and  _107
REMARK   48  A    between atoms: _107  and  _108
REMARK   49  A    between atoms: _108  and  _109
REMARK   50  A    between atoms: _113  and  _115
REMARK   51  A    between atoms: _115  and  _116
REMARK   52  A    between atoms: _115  and  _118
REMARK   53  A    between atoms: _118  and  _119
REMARK   54  A    between atoms: _122  and  _124
REMARK   55  A    between atoms: _124  and  _125
REMARK   56  A    between atoms: _124  and  _127
REMARK   57  A    between atoms: _130  and  _132
REMARK   58  A    between atoms: _132  and  _133
REMARK   59  A    between atoms: _135  and  _137
REMARK   60  A    between atoms: _137  and  _138
REMARK   61  A    between atoms: _140  and  _142
REMARK   62  A    between atoms: _142  and  _143
REMARK   63  A    between atoms: _142  and  _145
REMARK   64  A    between atoms: _145  and  _146
REMARK   65  A    between atoms: _149  and  _151
REMARK   66  A    between atoms: _151  and  _152
REMARK   67  A    between atoms: _154  and  _156
REMARK   68  A    between atoms: _156  and  _157
REMARK   69  A    between atoms: _159  and  _161
REMARK   70  A    between atoms: _161  and  _162
REMARK   71  A    between atoms: _161  and  _164
REMARK   72  A    between atoms: _164  and  _165
REMARK   73  A    between atoms: _168  and  _170
REMARK   74  A    between atoms: _170  and  _171
REMARK   75  A    between atoms: _170  and  _173
REMARK   76  A    between atoms: _173  and  _174
REMARK   77  A    between atoms: _177  and  _179
REMARK   78  A    between atoms: _179  and  _180
REMARK   79  A    between atoms: _179  and  _182
REMARK   80  A    between atoms: _182  and  _183
REMARK   81  A    between atoms: _183  and  _184
REMARK   82  A    between atoms: _186  and  _188
REMARK   83  A    between atoms: _188  and  _189
REMARK   84  A    between atoms: _188  and  _191
REMARK   85  A    between atoms: _191  and  _192
REMARK   86  A    between atoms: _196  and  _197
REMARK   87  A    between atoms: _202  and  _204
REMARK   88  A    between atoms: _204  and  _205
REMARK   89  A    between atoms: _204  and  _207
REMARK   90  A    between atoms: _207  and  _208
REMARK   91  A    between atoms: _211  and  _213
REMARK   92  A    between atoms: _213  and  _214
REMARK   93  A    between atoms: _213  and  _216
REMARK   94  A    between atoms: _216  and  _217
REMARK   95  A    between atoms: _222  and  _224
REMARK   96  A    between atoms: _224  and  _225
REMARK   97  A    between atoms: _224  and  _227
REMARK   98  A    between atoms: _227  and  _228
REMARK   99  A    between atoms: _231  and  _233
REMARK  100  A    between atoms: _233  and  _234
REMARK  101  A    between atoms: _233  and  _236
REMARK  102  A    between atoms: _236  and  _237
REMARK  103  A    between atoms: _243  and  _245
REMARK  104  A    between atoms: _245  and  _246
REMARK  105  A    between atoms: _248  and  _250
REMARK  106  A    between atoms: _250  and  _251
REMARK  107  A    between atoms: _250  and  _253
REMARK  108  A    between atoms: _253  and  _254
REMARK  109  A    between atoms: _254  and  _255
REMARK  110  A    between atoms: _255  and  _256
REMARK  111  A    between atoms: _265  and  _267
REMARK  112  A    between atoms: _267  and  _268
REMARK  113  A    between atoms: _267  and  _270
REMARK  114  A    between atoms: _270  and  _271
REMARK  115  A    between atoms: _276  and  _278
REMARK  116  A    between atoms: _278  and  _279
REMARK  117  A    between atoms: _278  and  _281
REMARK  118  A    between atoms: _281  and  _282
REMARK  119  A    between atoms: _282  and  _283
REMARK  120  A    between atoms: _283  and  _284
REMARK  121  A    between atoms: _293  and  _295
REMARK  122  A    between atoms: _295  and  _296
REMARK  123  A    between atoms: _295  and  _298
REMARK  124  A    between atoms: _298  and  _299
REMARK  125  A    between atoms: _302  and  _304
REMARK  126  A    between atoms: _304  and  _305
REMARK  127  A    between atoms: _304  and  _307
REMARK  128  A    between atoms: _307  and  _308
REMARK  129  A    between atoms: _311  and  _313
REMARK  130  A    between atoms: _313  and  _314
REMARK  131  A    between atoms: _313  and  _316
REMARK  132  A    between atoms: _316  and  _317
REMARK  133  A    between atoms: _320  and  _322
REMARK  134  A    between atoms: _322  and  _323
REMARK  135  A    between atoms: _322  and  _325
REMARK  136  A    between atoms: _325  and  _326
REMARK  137  A    between atoms: _329  and  _331
REMARK  138  A    between atoms: _331  and  _332
REMARK  139  A    between atoms: _334  and  _336
REMARK  140  A    between atoms: _336  and  _337
REMARK  141  A    between atoms: _340  and  _342
REMARK  142  A    between atoms: _342  and  _343
REMARK  143  A    between atoms: _342  and  _345
REMARK  144  A    between atoms: _345  and  _346
REMARK  145  A    between atoms: _349  and  _351
REMARK  146  A    between atoms: _351  and  _352
REMARK  147  A    between atoms: _351  and  _354
REMARK  148  A    between atoms: _354  and  _355
REMARK  149  A    between atoms: _355  and  _357
REMARK  150  A    between atoms: _358  and  _360
REMARK  151  A    between atoms: _360  and  _361
REMARK  152  A    between atoms: _360  and  _363
REMARK  153  A    between atoms: _363  and  _364
REMARK  154  A    between atoms: _366  and  _368
REMARK  155  A    between atoms: _368  and  _369
REMARK  156  A    between atoms: _368  and  _371
REMARK  157  A    between atoms: _371  and  _372
REMARK  158  A    between atoms: _375  and  _377
REMARK  159  A    between atoms: _377  and  _378
REMARK  160  A    between atoms: _377  and  _380
REMARK  161  A    between atoms: _380  and  _381
REMARK  162  A    between atoms: _384  and  _386
REMARK  163  A    between atoms: _386  and  _387
REMARK  164  A    between atoms: _386  and  _389
REMARK  165  A    between atoms: _392  and  _394
REMARK  166  A    between atoms: _394  and  _395
REMARK  167  A    between atoms: _397  and  _399
REMARK  168  A    between atoms: _399  and  _400
REMARK  169  A    between atoms: _402  and  _404
REMARK  170  A    between atoms: _404  and  _405
REMARK  171  A    between atoms: _404  and  _407
REMARK  172  A    between atoms: _407  and  _408
REMARK  173  A    between atoms: _411  and  _413
REMARK  174  A    between atoms: _413  and  _414
REMARK  175  A    between atoms: _416  and  _418
REMARK  176  A    between atoms: _418  and  _419
REMARK  177  A    between atoms: _421  and  _423
REMARK  178  A    between atoms: _423  and  _424
REMARK  179  A    between atoms: _423  and  _426
REMARK  180  A    between atoms: _426  and  _427
REMARK  181  A    between atoms: _430  and  _432
REMARK  182  A    between atoms: _432  and  _433
REMARK  183  A    between atoms: _432  and  _435
REMARK  184  A    between atoms: _435  and  _436
REMARK  185  A    between atoms: _439  and  _441
REMARK  186  A    between atoms: _441  and  _442
REMARK  187  A    between atoms: _441  and  _444
REMARK  188  A    between atoms: _444  and  _445
REMARK  189  A    between atoms: _445  and  _446
REMARK  190  A    between atoms: _448  and  _450
REMARK  191  A    between atoms: _450  and  _451
REMARK  192  A    between atoms: _450  and  _453
REMARK  193  A    between atoms: _453  and  _454
REMARK  194  A    between atoms: _458  and  _459
REMARK  195  A    between atoms: _464  and  _466
REMARK  196  A    between atoms: _466  and  _467
REMARK  197  A    between atoms: _466  and  _469
REMARK  198  A    between atoms: _469  and  _470
REMARK  199  A    between atoms: _473  and  _475
REMARK  200  A    between atoms: _475  and  _476
REMARK  201  A    between atoms: _475  and  _478
REMARK  202  A    between atoms: _478  and  _479
REMARK  203  A    between atoms: _484  and  _486
REMARK  204  A    between atoms: _486  and  _487
REMARK  205  A    between atoms: _486  and  _489
REMARK  206  A    between atoms: _489  and  _490
REMARK  207  A    between atoms: _493  and  _495
REMARK  208  A    between atoms: _495  and  _496
REMARK  209  A    between atoms: _495  and  _498
REMARK  210  A    between atoms: _498  and  _499
REMARK  211  A    between atoms: _505  and  _507
REMARK  212  A    between atoms: _507  and  _508
REMARK  213  A    between atoms: _510  and  _512
REMARK  214  A    between atoms: _512  and  _513
REMARK  215  A    between atoms: _512  and  _515
REMARK  216  A    between atoms: _515  and  _516
REMARK  217  A    between atoms: _516  and  _517
REMARK  218  A    between atoms: _517  and  _518
REMARK  219  A    between atoms: _527  and  _529
REMARK  220  A    between atoms: _529  and  _530
REMARK  221  A    between atoms: _529  and  _532
REMARK  222  A    between atoms: _532  and  _533
REMARK                            x       y       z     vdW  Elec       q    Type
REMARK                         _______ _______ _______ _____ _____    ______ ____
ROOT
ATOM      1  NE  ARG A   1      19.533  -2.147  20.991  0.00  0.00    -0.265 N 
ATOM      2  CZ  ARG A   1      18.651  -1.846  21.924  0.00  0.00    +0.342 C 
ATOM      3  NH2 ARG A   1      18.709  -0.658  22.517  0.00  0.00    -0.292 N 
ATOM      4 HH21 ARG A   1      18.018  -0.410  23.254  0.00  0.00    +0.255 HD
ATOM      5 HH22 ARG A   1      19.445   0.024  22.244  0.00  0.00    +0.255 HD
ATOM      6  NH1 ARG A   1      17.713  -2.718  22.277  0.00  0.00    -0.292 N 
ATOM      7 HH11 ARG A   1      17.023  -2.469  23.014  0.00  0.00    +0.255 HD
ATOM      8 HH12 ARG A   1      17.669  -3.649  21.816  0.00  0.00    +0.255 HD
ATOM      9  HE  ARG A   1      19.462  -3.087  20.552  0.00  0.00    +0.259 HD
ENDROOT
BRANCH   1  10
ATOM     10  CD  ARG A   1      20.614  -1.257  20.518  0.00  0.00    +0.174 C 
BRANCH  10  11
ATOM     11  CG  ARG A   1      20.546  -1.327  18.985  0.00  0.00    +0.045 C 
BRANCH  11  12
ATOM     12  CB  ARG A   1      21.608  -2.230  18.411  0.00  0.00    +0.029 C 
BRANCH  12  13
ATOM     13  CA  ARG A   1      21.239  -2.807  17.043  0.00  0.00    +0.133 C 
BRANCH  13  14
ATOM     14  N   ARG A   1      20.351  -3.956  17.181  0.00  0.00    -0.239 NA
ATOM     15  H   ARG A   1      20.028  -4.250  18.125  0.00  0.00    +0.142 HD
ENDBRANCH  13  14
BRANCH  13  16
ATOM     16  C   ARG A   1      22.529  -3.165  16.318  0.00  0.00    +0.224 C 
ATOM     17  O   ARG A   1      23.107  -4.220  16.600  0.00  0.00    -0.287 OA
ENDBRANCH  13  16
ENDBRANCH  12  13
ENDBRANCH  11  12
ENDBRANCH  10  11
ENDBRANCH   1  10
TORSDOF 6
REMARK  Name = ../refined-set-2016/3s45/3s45_pocket.pdb
REMARK  222 active torsions:
REMARK  status: ('A' for Active; 'I' for Inactive)
REMARK    1  A    between atoms: _1  and  _3
REMARK    2  A    between atoms: _3  and  _4
REMARK    3  A    between atoms: _3  and  _6
REMARK    4  A    between atoms: _6  and  _7
REMARK    5  A    between atoms: _7  and  _8
REMARK    6  A    between atoms: _8  and  _9
REMARK    7  A    between atoms: _18  and  _20
REMARK    8  A    between atoms: _20  and  _21
REMARK    9  A    between atoms: _20  and  _23
REMARK   10  A    between atoms: _23  and  _24
REMARK   11  A    between atoms: _27  and  _29
REMARK   12  A    between atoms: _29  and  _30
REMARK   13  A    between atoms: _29  and  _32
REMARK   14  A    between atoms: _32  and  _33
REMARK   15  A    between atoms: _36  and  _38
REMARK   16  A    between atoms: _38  and  _39
REMARK   17  A    between atoms: _38  and  _41
REMARK   18  A    between atoms: _41  and  _42
REMARK   19  A    between atoms: _45  and  _47
REMARK   20  A    between atoms: _47  and  _48
REMARK   21  A    between atoms: _47  and  _50
REMARK   22  A    between atoms: _50  and  _51
REMARK   23  A    between atoms: _54  and  _56
REMARK   24  A    between atoms: _56  and  _57
REMARK   25  A    between atoms: _59  and  _61
REMARK   26  A    between atoms: _61  and  _62
REMARK   27  A    between atoms: _65  and  _67
REMARK   28  A    between atoms: _67  and  _68
REMARK   29  A    between atoms: _67  and  _70
REMARK   30  A    between atoms: _70  and  _71
REMARK   31  A    between atoms: _74  and  _76
REMARK   32  A    between atoms: _76  and  _77
REMARK   33  A    between atoms: _76  and  _79
REMARK   34  A    between atoms: _79  and  _80
REMARK   35  A    between atoms: _83  and  _85
REMARK   36  A    between atoms: _85  and  _86
REMARK   37  A    between atoms: _85  and  _88
REMARK   38  A    between atoms: _88  and  _89
REMARK   39  A    between atoms: _91  and  _93
REMARK   40  A    between atoms: _93  and  _94
REMARK   41  A    between atoms: _93  and  _96
REMARK   42  A    between atoms: _96  and  _97
REMARK   43  A    between atoms: _100  and  _102
REMARK   44  A    between atoms: _102  and  _103
REMARK   45  A    between atoms: _102  and  _105
REMARK   46  A    between atoms: _105  and  _106
REMARK   47  A    between atoms: _106  and  _107
REMARK   48  A    between atoms: _107  and  _108
REMARK   49  A    between atoms: _108  and  _109
REMARK   50  A    between atoms: _113  and  _115
REMARK   51  A    between atoms: _115  and  _116
REMARK   52  A    between atoms: _115  and  _118
REMARK   53  A    between atoms: _118  and  _119
REMARK   54  A    between atoms: _122  and  _124
REMARK   55  A    between atoms: _124  and  _125
REMARK   56  A    between atoms: _124  and  _127
REMARK   57  A    between atoms: _130  and  _132
REMARK   58  A    between atoms: _132  and  _133
REMARK   59  A    between atoms: _135  and  _137
REMARK   60  A    between atoms: _137  and  _138
REMARK   61  A    between atoms: _140  and  _142
REMARK   62  A    between atoms: _142  and  _143
REMARK   63  A    between atoms: _142  and  _145
REMARK   64  A    between atoms: _145  and  _146
REMARK   65  A    between atoms: _149  and  _151
REMARK   66  A    between atoms: _151  and  _152
REMARK   67  A    between atoms: _154  and  _156
REMARK   68  A    between atoms: _156  and  _157
REMARK   69  A    between atoms: _159  and  _161
REMARK   70  A    between atoms: _161  and  _162
REMARK   71  A    between atoms: _161  and  _164
REMARK   72  A    between atoms: _164  and  _165
REMARK   73  A    between atoms: _168  and  _170
REMARK   74  A    between atoms: _170  and  _171
REMARK   75  A    between atoms: _170  and  _173
REMARK   76  A    between atoms: _173  and  _174
REMARK   77  A    between atoms: _177  and  _179
REMARK   78  A    between atoms: _179  and  _180
REMARK   79  A    between atoms: _179  and  _182
REMARK   80  A    between atoms: _182  and  _183
REMARK   81  A    between atoms: _183  and  _184
REMARK   82  A    between atoms: _186  and  _188
REMARK   83  A    between atoms: _188  and  _189
REMARK   84  A    between atoms: _188  and  _191
REMARK   85  A    between atoms: _191  and  _192
REMARK   86  A    between atoms: _196  and  _197
REMARK   87  A    between atoms: _202  and  _204
REMARK   88  A    between atoms: _204  and  _205
REMARK   89  A    between atoms: _204  and  _207
REMARK   90  A    between atoms: _207  and  _208
REMARK   91  A    between atoms: _211  and  _213
REMARK   92  A    between atoms: _213  and  _214
REMARK   93  A    between atoms: _213  and  _216
REMARK   94  A    between atoms: _216  and  _217
REMARK   95  A    between atoms: _222  and  _224
REMARK   96  A    between atoms: _224  and  _225
REMARK   97  A    between atoms: _224  and  _227
REMARK   98  A    between atoms: _227  and  _228
REMARK   99  A    between atoms: _231  and  _233
REMARK  100  A    between atoms: _233  and  _234
REMARK  101  A    between atoms: _233  and  _236
REMARK  102  A    between atoms: _236  and  _237
REMARK  103  A    between atoms: _243  and  _245
REMARK  104  A    between atoms: _245  and  _246
REMARK  105  A    between atoms: _248  and  _250
REMARK  106  A    between atoms: _250  and  _251
REMARK  107  A    between atoms: _250  and  _253
REMARK  108  A    between atoms: _253  and  _254
REMARK  109  A    between atoms: _254  and  _255
REMARK  110  A    between atoms: _255  and  _256
REMARK  111  A    between atoms: _265  and  _267
REMARK  112  A    between atoms: _267  and  _268
REMARK  113  A    between atoms: _267  and  _270
REMARK  114  A    between atoms: _270  and  _271
REMARK  115  A    between atoms: _276  and  _278
REMARK  116  A    between atoms: _278  and  _279
REMARK  117  A    between atoms: _278  and  _281
REMARK  118  A    between atoms: _281  and  _282
REMARK  119  A    between atoms: _282  and  _283
REMARK  120  A    between atoms: _283  and  _284
REMARK  121  A    between atoms: _293  and  _295
REMARK  122  A    between atoms: _295  and  _296
REMARK  123  A    between atoms: _295  and  _298
REMARK  124  A    between atoms: _298  and  _299
REMARK  125  A    between atoms: _302  and  _304
REMARK  126  A    between atoms: _304  and  _305
REMARK  127  A    between atoms: _304  and  _307
REMARK  128  A    between atoms: _307  and  _308
REMARK  129  A    between atoms: _311  and  _313
REMARK  130  A    between atoms: _313  and  _314
REMARK  131  A    between atoms: _313  and  _316
REMARK  132  A    between atoms: _316  and  _317
REMARK  133  A    between atoms: _320  and  _322
REMARK  134  A    between atoms: _322  and  _323
REMARK  135  A    between atoms: _322  and  _325
REMARK  136  A    between atoms: _325  and  _326
REMARK  137  A    between atoms: _329  and  _331
REMARK  138  A    between atoms: _331  and  _332
REMARK  139  A    between atoms: _334  and  _336
REMARK  140  A    between atoms: _336  and  _337
REMARK  141  A    between atoms: _340  and  _342
REMARK  142  A    between atoms: _342  and  _343
REMARK  143  A    between atoms: _342  and  _345
REMARK  144  A    between atoms: _345  and  _346
REMARK  145  A    between atoms: _349  and  _351
REMARK  146  A    between atoms: _351  and  _352
REMARK  147  A    between atoms: _351  and  _354
REMARK  148  A    between atoms: _354  and  _355
REMARK  149  A    between atoms: _355  and  _357
REMARK  150  A    between atoms: _358  and  _360
REMARK  151  A    between atoms: _360  and  _361
REMARK  152  A    between atoms: _360  and  _363
REMARK  153  A    between atoms: _363  and  _364
REMARK  154  A    between atoms: _366  and  _368
REMARK  155  A    between atoms: _368  and  _369
REMARK  156  A    between atoms: _368  and  _371
REMARK  157  A    between atoms: _371  and  _372
REMARK  158  A    between atoms: _375  and  _377
REMARK  159  A    between atoms: _377  and  _378
REMARK  160  A    between atoms: _377  and  _380
REMARK  161  A    between atoms: _380  and  _381
REMARK  162  A    between atoms: _384  and  _386
REMARK  163  A    between atoms: _386  and  _387
REMARK  164  A    between atoms: _386  and  _389
REMARK  165  A    between atoms: _392  and  _394
REMARK  166  A    between atoms: _394  and  _395
REMARK  167  A    between atoms: _397  and  _399
REMARK  168  A    between atoms: _399  and  _400
REMARK  169  A    between atoms: _402  and  _404
REMARK  170  A    between atoms: _404  and  _405
REMARK  171  A    between atoms: _404  and  _407
REMARK  172  A    between atoms: _407  and  _408
REMARK  173  A    between atoms: _411  and  _413
REMARK  174  A    between atoms: _413  and  _414
REMARK  175  A    between atoms: _416  and  _418
REMARK  176  A    between atoms: _418  and  _419
REMARK  177  A    between atoms: _421  and  _423
REMARK  178  A    between atoms: _423  and  _424
REMARK  179  A    between atoms: _423  and  _426
REMARK  180  A    between atoms: _426  and  _427
REMARK  181  A    between atoms: _430  and  _432
REMARK  182  A    between atoms: _432  and  _433
REMARK  183  A    between atoms: _432  and  _435
REMARK  184  A    between atoms: _435  and  _436
REMARK  185  A    between atoms: _439  and  _441
REMARK  186  A    between atoms: _441  and  _442
REMARK  187  A    between atoms: _441  and  _444
REMARK  188  A    between atoms: _444  and  _445
REMARK  189  A    between atoms: _445  and  _446
REMARK  190  A    between atoms: _448  and  _450
REMARK  191  A    between atoms: _450  and  _451
REMARK  192  A    between atoms: _450  and  _453
REMARK  193  A    between atoms: _453  and  _454
REMARK  194  A    between atoms: _458  and  _459
REMARK  195  A    between atoms: _464  and  _466
REMARK  196  A    between atoms: _466  and  _467
REMARK  197  A    between atoms: _466  and  _469
REMARK  198  A    between atoms: _469  and  _470
REMARK  199  A    between atoms: _473  and  _475
REMARK  200  A    between atoms: _475  and  _476
REMARK  201  A    between atoms: _475  and  _478
REMARK  202  A    between atoms: _478  and  _479
REMARK  203  A    between atoms: _484  and  _486
REMARK  204  A    between atoms: _486  and  _487
REMARK  205  A    between atoms: _486  and  _489
REMARK  206  A    between atoms: _489  and  _490
REMARK  207  A    between atoms: _493  and  _495
REMARK  208  A    between atoms: _495  and  _496
REMARK  209  A    between atoms: _495  and  _498
REMARK  210  A    between atoms: _498  and  _499
REMARK  211  A    between atoms: _505  and  _507
REMARK  212  A    between atoms: _507  and  _508
REMARK  213  A    between atoms: _510  and  _512
REMARK  214  A    between atoms: _512  and  _513
REMARK  215  A    between atoms: _512  and  _515
REMARK  216  A    between atoms: _515  and  _516
REMARK  217  A    between atoms: _516  and  _517
REMARK  218  A    between atoms: _517  and  _518
REMARK  219  A    between atoms: _527  and  _529
REMARK  220  A    between atoms: _529  and  _530
REMARK  221  A    between atoms: _529  and  _532
REMARK  222  A    between atoms: _532  and  _533
REMARK                            x       y       z     vdW  Elec       q    Type
REMARK                         _______ _______ _______ _____ _____    ______ ____
ROOT
ATOM      1  C   GLY A   5      22.531  10.530  12.987  0.00  0.00    +0.000 C 
ATOM      2  O   GLY A   5      22.088  11.629  13.416  0.00  0.00    +0.000 OA
ATOM      3  N   ALA A   6      23.803  10.159  13.123  0.00  0.00    +0.000 N 
ATOM      4  H   ALA A   6      24.098   9.230  12.761  0.00  0.00    +0.000 HD
ENDROOT
BRANCH   3   5
ATOM      5  CA  ALA A   6      24.799  11.019  13.766  0.00  0.00    +0.000 C 
ATOM      6  CB  ALA A   6      25.552  10.239  14.837  0.00  0.00    +0.000 C 
BRANCH   5   7
ATOM      7  C   ALA A   6      25.752  11.570  12.721  0.00  0.00    +0.000 C 
ATOM      8  N   ASP A   7      25.997  12.870  12.762  0.00  0.00    +0.000 N 
ATOM      9  H   ASP A   7      25.521  13.467  13.468  0.00  0.00    +0.000 HD
ATOM     10  O   ALA A   6      26.279  10.842  11.862  0.00  0.00    +0.000 OA
BRANCH   8  11
ATOM     11  CA  ASP A   7      26.939  13.467  11.812  0.00  0.00    +0.000 C 
BRANCH  11  12
ATOM     12  C   ASP A   7      28.382  13.173  12.228  0.00  0.00    +0.000 C 
ATOM     13  N   UNK A   8      28.626  13.184  13.539  0.00  0.00    +0.000 N 
ATOM     14  H   UNK A   8      27.801  13.301  14.161  0.00  0.00    +0.000 HD
ATOM     15  O   ASP A   7      29.232  12.955  11.351  0.00  0.00    +0.000 OA
BRANCH  13  16
ATOM     16  C   UNK A   8      29.910  13.051  14.192  0.00  0.00    +0.000 C 
BRANCH  16  17
ATOM     17  C   UNK A   8      29.995  11.729  14.965  0.00  0.00    +0.000 C 
ATOM     18  N   SER A   9      31.189  11.445  15.466  0.00  0.00    +0.000 N 
ATOM     19  H   SER A   9      31.984  12.095  15.304  0.00  0.00    +0.000 HD
ATOM     20  O   UNK A   8      29.005  11.013  15.095  0.00  0.00    +0.000 OA
BRANCH  18  21
ATOM     21  CA  SER A   9      31.397  10.228  16.243  0.00  0.00    +0.000 C 
BRANCH  21  22
ATOM     22  C   SER A   9      31.739  10.629  17.662  0.00  0.00    +0.000 C 
ATOM     23  N   ILE A  10      31.047  10.096  18.654  0.00  0.00    +0.000 N 
ATOM     24  H   ILE A  10      30.405   9.303  18.453  0.00  0.00    +0.000 HD
ATOM     25  O   SER A   9      32.626  11.475  17.853  0.00  0.00    +0.000 OA
BRANCH  23  26
ATOM     26  CA  ILE A  10      31.156  10.583  20.008  0.00  0.00    +0.000 C 
BRANCH  26  27
ATOM     27  C   ILE A  10      31.338   9.346  20.886  0.00  0.00    +0.000 C 
ATOM     28  O   ILE A  10      30.532   8.412  20.782  0.00  0.00    +0.000 OA
ENDBRANCH  26  27
BRANCH  26  29
ATOM     29  CB  ILE A  10      29.921  11.366  20.511  0.00  0.00    +0.000 C 
ATOM     30  CG2 ILE A  10      30.228  12.043  21.869  0.00  0.00    +0.000 C 
BRANCH  29  31
ATOM     31  CG1 ILE A  10      29.303  12.413  19.585  0.00  0.00    +0.000 C 
ATOM     32  CD1 ILE A  10      30.255  13.347  18.907  0.00  0.00    +0.000 C 
ENDBRANCH  29  31
ENDBRANCH  26  29
ENDBRANCH  23  26
ENDBRANCH  21  22
BRANCH  21  33
ATOM     33  CB  SER A   9      32.504   9.404  15.590  0.00  0.00    +0.000 C 
BRANCH  33  34
ATOM     34  OG  SER A   9      32.116   9.008  14.284  0.00  0.00    +0.000 OA
ATOM     35  H   SER A   9      31.943   9.813  13.734  0.00  0.00    +0.000 HD
ENDBRANCH  33  34
ENDBRANCH  21  33
ENDBRANCH  18  21
ENDBRANCH  16  17
BRANCH  16  36
ATOM     36  C   UNK A   8      30.192  14.182  15.208  0.00  0.00    +0.000 C 
BRANCH  36  37
ATOM     37  C   UNK A   8      29.837  15.562  14.715  0.00  0.00    +0.000 C 
ATOM     38  O   UNK A   8      30.517  16.034  13.789  0.00  0.00    +0.000 OA
BRANCH  37  39
ATOM     39  O   UNK A   8      28.877  16.184  15.226  0.00  0.00    +0.000 OA
ATOM     40 ZN   UNK A   8      28.282  17.960  14.867  0.00  0.00    +0.000 Zn
ENDBRANCH  37  39
ENDBRANCH  36  37
ENDBRANCH  16  36
ENDBRANCH  13  16
ENDBRANCH  11  12
BRANCH  11  41
ATOM     41  CB  ASP A   7      26.635  14.964  11.765  0.00  0.00    +0.000 C 
BRANCH  41  42
ATOM     42  CG  ASP A   7      25.147  15.199  11.537  0.00  0.00    +0.000 C 
ATOM     43  OD2 ASP A   7      24.494  15.646  12.509  0.00  0.00    +0.000 OA
ATOM     44  OD1 ASP A   7      24.586  14.951  10.438  0.00  0.00    +0.000 OA
ENDBRANCH  41  42
ENDBRANCH  11  41
ENDBRANCH   8  11
ENDBRANCH   5   7
ENDBRANCH   3   5
BRANCH   1  45
ATOM     45  CA  GLY A   5      21.605   9.575  12.257  0.00  0.00    +0.000 C 
BRANCH  45  47
ATOM     46  C   THR A   4      22.888   8.261  10.621  0.00  0.00    +0.000 C 
ATOM     47  N   GLY A   5      22.222   8.347  11.763  0.00  0.00    +0.000 N 
ATOM     48  H   GLY A   5      22.133   7.488  12.343  0.00  0.00    +0.000 HD
ATOM     49  O   THR A   4      23.051   9.148   9.793  0.00  0.00    +0.000 OA
BRANCH  46  50
ATOM     50  CA  THR A   4      23.528   6.917  10.283  0.00  0.00    +0.000 C 
BRANCH  50  53
ATOM     51  C   ASP A   3      24.493   6.362  12.443  0.00  0.00    +0.000 C 
ATOM     52  O   ASP A   3      25.168   7.406  12.395  0.00  0.00    +0.000 OA
ATOM     53  N   THR A   4      23.648   6.054  11.457  0.00  0.00    +0.000 N 
ATOM     54  H   THR A   4      23.070   5.192  11.524  0.00  0.00    +0.000 HD
BRANCH  51  55
ATOM     55  CA  ASP A   3      24.576   5.405  13.611  0.00  0.00    +0.000 C 
BRANCH  55  57
ATOM     56  C   LEU A   2      25.576   3.138  13.572  0.00  0.00    +0.000 C 
ATOM     57  N   ASP A   3      25.685   4.452  13.563  0.00  0.00    +0.000 N 
ATOM     58  H   ASP A   3      26.646   4.847  13.518  0.00  0.00    +0.000 HD
ATOM     59  O   LEU A   2      24.522   2.534  13.388  0.00  0.00    +0.000 OA
BRANCH  56  60
ATOM     60  CA  LEU A   2      26.860   2.360  13.840  0.00  0.00    +0.000 C 
BRANCH  60  63
ATOM     61  C   LEU A   1      27.036   2.489  16.260  0.00  0.00    +0.000 C 
ATOM     62  O   LEU A   1      27.490   3.644  16.300  0.00  0.00    +0.000 OA
ATOM     63  N   LEU A   2      26.732   1.776  15.171  0.00  0.00    +0.000 N 
ATOM     64  H   LEU A   2      26.401   0.795  15.273  0.00  0.00    +0.000 HD
BRANCH  61  65
ATOM     65  CA  LEU A   1      26.808   1.786  17.583  0.00  0.00    +0.000 C 
BRANCH  65  66
ATOM     66  N   LEU A   1      28.005   1.884  18.423  0.00  0.00    +0.000 NA
ATOM     67  H   LEU A   1      28.171   2.771  18.940  0.00  0.00    +0.000 HD
ENDBRANCH  65  66
BRANCH  65  68
ATOM     68  CB  LEU A   1      25.647   2.458  18.312  0.00  0.00    +0.000 C 
BRANCH  68  69
ATOM     69  CG  LEU A   1      24.290   2.555  17.658  0.00  0.00    +0.000 C 
ATOM     70  CD2 LEU A   1      23.336   3.336  18.569  0.00  0.00    +0.000 C 
ATOM     71  CD1 LEU A   1      23.701   1.188  17.341  0.00  0.00    +0.000 C 
ENDBRANCH  68  69
ENDBRANCH  65  68
ENDBRANCH  61  65
ENDBRANCH  60  63
BRANCH  60  72
ATOM     72  CB  LEU A   2      27.118   1.273  12.810  0.00  0.00    +0.000 C 
BRANCH  72  73
ATOM     73  CG  LEU A   2      28.289   0.328  13.105  0.00  0.00    +0.000 C 
ATOM     74  CD2 LEU A   2      29.612   1.067  13.180  0.00  0.00    +0.000 C 
ATOM     75  CD1 LEU A   2      28.362  -0.772  12.053  0.00  0.00    +0.000 C 
ENDBRANCH  72  73
ENDBRANCH  60  72
ENDBRANCH  56  60
ENDBRANCH  55  57
BRANCH  55  76
ATOM     76  CB  ASP A   3      24.790   6.221  14.893  0.00  0.00    +0.000 C 
BRANCH  76  77
ATOM     77  CG  ASP A   3      23.572   7.064  15.176  0.00  0.00    +0.000 C 
ATOM     78  OD2 ASP A   3      23.604   7.781  16.190  0.00  0.00    +0.000 OA
ATOM     79  OD1 ASP A   3      22.600   7.005  14.403  0.00  0.00    +0.000 OA
ENDBRANCH  76  77
ENDBRANCH  55  76
ENDBRANCH  51  55
ENDBRANCH  50  53
BRANCH  50  80
ATOM     80  CB  THR A   4      22.711   6.277   9.152  0.00  0.00    +0.000 C 
ATOM     81  CG2 THR A   4      23.415   5.014   8.691  0.00  0.00    +0.000 C 
BRANCH  80  82
ATOM     82  OG1 THR A   4      21.431   5.880   9.640  0.00  0.00    +0.000 OA
ATOM     83  HG1 THR A   4      20.949   6.674   9.982  0.00  0.00    +0.000 HD
ENDBRANCH  80  82
ENDBRANCH  50  80
ENDBRANCH  46  50
ENDBRANCH  45  47
ENDBRANCH   1  45
TORSDOF 37
REMARK  Name = ../refined-set-2016/3s45/3s45_pocket.pdb
REMARK  222 active torsions:
REMARK  status: ('A' for Active; 'I' for Inactive)
REMARK    1  A    between atoms: _1  and  _3
REMARK    2  A    between atoms: _3  and  _4
REMARK    3  A    between atoms: _3  and  _6
REMARK    4  A    between atoms: _6  and  _7
REMARK    5  A    between atoms: _7  and  _8
REMARK    6  A    between atoms: _8  and  _9
REMARK    7  A    between atoms: _18  and  _20
REMARK    8  A    between atoms: _20  and  _21
REMARK    9  A    between atoms: _20  and  _23
REMARK   10  A    between atoms: _23  and  _24
REMARK   11  A    between atoms: _27  and  _29
REMARK   12  A    between atoms: _29  and  _30
REMARK   13  A    between atoms: _29  and  _32
REMARK   14  A    between atoms: _32  and  _33
REMARK   15  A    between atoms: _36  and  _38
REMARK   16  A    between atoms: _38  and  _39
REMARK   17  A    between atoms: _38  and  _41
REMARK   18  A    between atoms: _41  and  _42
REMARK   19  A    between atoms: _45  and  _47
REMARK   20  A    between atoms: _47  and  _48
REMARK   21  A    between atoms: _47  and  _50
REMARK   22  A    between atoms: _50  and  _51
REMARK   23  A    between atoms: _54  and  _56
REMARK   24  A    between atoms: _56  and  _57
REMARK   25  A    between atoms: _59  and  _61
REMARK   26  A    between atoms: _61  and  _62
REMARK   27  A    between atoms: _65  and  _67
REMARK   28  A    between atoms: _67  and  _68
REMARK   29  A    between atoms: _67  and  _70
REMARK   30  A    between atoms: _70  and  _71
REMARK   31  A    between atoms: _74  and  _76
REMARK   32  A    between atoms: _76  and  _77
REMARK   33  A    between atoms: _76  and  _79
REMARK   34  A    between atoms: _79  and  _80
REMARK   35  A    between atoms: _83  and  _85
REMARK   36  A    between atoms: _85  and  _86
REMARK   37  A    between atoms: _85  and  _88
REMARK   38  A    between atoms: _88  and  _89
REMARK   39  A    between atoms: _91  and  _93
REMARK   40  A    between atoms: _93  and  _94
REMARK   41  A    between atoms: _93  and  _96
REMARK   42  A    between atoms: _96  and  _97
REMARK   43  A    between atoms: _100  and  _102
REMARK   44  A    between atoms: _102  and  _103
REMARK   45  A    between atoms: _102  and  _105
REMARK   46  A    between atoms: _105  and  _106
REMARK   47  A    between atoms: _106  and  _107
REMARK   48  A    between atoms: _107  and  _108
REMARK   49  A    between atoms: _108  and  _109
REMARK   50  A    between atoms: _113  and  _115
REMARK   51  A    between atoms: _115  and  _116
REMARK   52  A    between atoms: _115  and  _118
REMARK   53  A    between atoms: _118  and  _119
REMARK   54  A    between atoms: _122  and  _124
REMARK   55  A    between atoms: _124  and  _125
REMARK   56  A    between atoms: _124  and  _127
REMARK   57  A    between atoms: _130  and  _132
REMARK   58  A    between atoms: _132  and  _133
REMARK   59  A    between atoms: _135  and  _137
REMARK   60  A    between atoms: _137  and  _138
REMARK   61  A    between atoms: _140  and  _142
REMARK   62  A    between atoms: _142  and  _143
REMARK   63  A    between atoms: _142  and  _145
REMARK   64  A    between atoms: _145  and  _146
REMARK   65  A    between atoms: _149  and  _151
REMARK   66  A    between atoms: _151  and  _152
REMARK   67  A    between atoms: _154  and  _156
REMARK   68  A    between atoms: _156  and  _157
REMARK   69  A    between atoms: _159  and  _161
REMARK   70  A    between atoms: _161  and  _162
REMARK   71  A    between atoms: _161  and  _164
REMARK   72  A    between atoms: _164  and  _165
REMARK   73  A    between atoms: _168  and  _170
REMARK   74  A    between atoms: _170  and  _171
REMARK   75  A    between atoms: _170  and  _173
REMARK   76  A    between atoms: _173  and  _174
REMARK   77  A    between atoms: _177  and  _179
REMARK   78  A    between atoms: _179  and  _180
REMARK   79  A    between atoms: _179  and  _182
REMARK   80  A    between atoms: _182  and  _183
REMARK   81  A    between atoms: _183  and  _184
REMARK   82  A    between atoms: _186  and  _188
REMARK   83  A    between atoms: _188  and  _189
REMARK   84  A    between atoms: _188  and  _191
REMARK   85  A    between atoms: _191  and  _192
REMARK   86  A    between atoms: _196  and  _197
REMARK   87  A    between atoms: _202  and  _204
REMARK   88  A    between atoms: _204  and  _205
REMARK   89  A    between atoms: _204  and  _207
REMARK   90  A    between atoms: _207  and  _208
REMARK   91  A    between atoms: _211  and  _213
REMARK   92  A    between atoms: _213  and  _214
REMARK   93  A    between atoms: _213  and  _216
REMARK   94  A    between atoms: _216  and  _217
REMARK   95  A    between atoms: _222  and  _224
REMARK   96  A    between atoms: _224  and  _225
REMARK   97  A    between atoms: _224  and  _227
REMARK   98  A    between atoms: _227  and  _228
REMARK   99  A    between atoms: _231  and  _233
REMARK  100  A    between atoms: _233  and  _234
REMARK  101  A    between atoms: _233  and  _236
REMARK  102  A    between atoms: _236  and  _237
REMARK  103  A    between atoms: _243  and  _245
REMARK  104  A    between atoms: _245  and  _246
REMARK  105  A    between atoms: _248  and  _250
REMARK  106  A    between atoms: _250  and  _251
REMARK  107  A    between atoms: _250  and  _253
REMARK  108  A    between atoms: _253  and  _254
REMARK  109  A    between atoms: _254  and  _255
REMARK  110  A    between atoms: _255  and  _256
REMARK  111  A    between atoms: _265  and  _267
REMARK  112  A    between atoms: _267  and  _268
REMARK  113  A    between atoms: _267  and  _270
REMARK  114  A    between atoms: _270  and  _271
REMARK  115  A    between atoms: _276  and  _278
REMARK  116  A    between atoms: _278  and  _279
REMARK  117  A    between atoms: _278  and  _281
REMARK  118  A    between atoms: _281  and  _282
REMARK  119  A    between atoms: _282  and  _283
REMARK  120  A    between atoms: _283  and  _284
REMARK  121  A    between atoms: _293  and  _295
REMARK  122  A    between atoms: _295  and  _296
REMARK  123  A    between atoms: _295  and  _298
REMARK  124  A    between atoms: _298  and  _299
REMARK  125  A    between atoms: _302  and  _304
REMARK  126  A    between atoms: _304  and  _305
REMARK  127  A    between atoms: _304  and  _307
REMARK  128  A    between atoms: _307  and  _308
REMARK  129  A    between atoms: _311  and  _313
REMARK  130  A    between atoms: _313  and  _314
REMARK  131  A    between atoms: _313  and  _316
REMARK  132  A    between atoms: _316  and  _317
REMARK  133  A    between atoms: _320  and  _322
REMARK  134  A    between atoms: _322  and  _323
REMARK  135  A    between atoms: _322  and  _325
REMARK  136  A    between atoms: _325  and  _326
REMARK  137  A    between atoms: _329  and  _331
REMARK  138  A    between atoms: _331  and  _332
REMARK  139  A    between atoms: _334  and  _336
REMARK  140  A    between atoms: _336  and  _337
REMARK  141  A    between atoms: _340  and  _342
REMARK  142  A    between atoms: _342  and  _343
REMARK  143  A    between atoms: _342  and  _345
REMARK  144  A    between atoms: _345  and  _346
REMARK  145  A    between atoms: _349  and  _351
REMARK  146  A    between atoms: _351  and  _352
REMARK  147  A    between atoms: _351  and  _354
REMARK  148  A    between atoms: _354  and  _355
REMARK  149  A    between atoms: _355  and  _357
REMARK  150  A    between atoms: _358  and  _360
REMARK  151  A    between atoms: _360  and  _361
REMARK  152  A    between atoms: _360  and  _363
REMARK  153  A    between atoms: _363  and  _364
REMARK  154  A    between atoms: _366  and  _368
REMARK  155  A    between atoms: _368  and  _369
REMARK  156  A    between atoms: _368  and  _371
REMARK  157  A    between atoms: _371  and  _372
REMARK  158  A    between atoms: _375  and  _377
REMARK  159  A    between atoms: _377  and  _378
REMARK  160  A    between atoms: _377  and  _380
REMARK  161  A    between atoms: _380  and  _381
REMARK  162  A    between atoms: _384  and  _386
REMARK  163  A    between atoms: _386  and  _387
REMARK  164  A    between atoms: _386  and  _389
REMARK  165  A    between atoms: _392  and  _394
REMARK  166  A    between atoms: _394  and  _395
REMARK  167  A    between atoms: _397  and  _399
REMARK  168  A    between atoms: _399  and  _400
REMARK  169  A    between atoms: _402  and  _404
REMARK  170  A    between atoms: _404  and  _405
REMARK  171  A    between atoms: _404  and  _407
REMARK  172  A    between atoms: _407  and  _408
REMARK  173  A    between atoms: _411  and  _413
REMARK  174  A    between atoms: _413  and  _414
REMARK  175  A    between atoms: _416  and  _418
REMARK  176  A    between atoms: _418  and  _419
REMARK  177  A    between atoms: _421  and  _423
REMARK  178  A    between atoms: _423  and  _424
REMARK  179  A    between atoms: _423  and  _426
REMARK  180  A    between atoms: _426  and  _427
REMARK  181  A    between atoms: _430  and  _432
REMARK  182  A    between atoms: _432  and  _433
REMARK  183  A    between atoms: _432  and  _435
REMARK  184  A    between atoms: _435  and  _436
REMARK  185  A    between atoms: _439  and  _441
REMARK  186  A    between atoms: _441  and  _442
REMARK  187  A    between atoms: _441  and  _444
REMARK  188  A    between atoms: _444  and  _445
REMARK  189  A    between atoms: _445  and  _446
REMARK  190  A    between atoms: _448  and  _450
REMARK  191  A    between atoms: _450  and  _451
REMARK  192  A    between atoms: _450  and  _453
REMARK  193  A    between atoms: _453  and  _454
REMARK  194  A    between atoms: _458  and  _459
REMARK  195  A    between atoms: _464  and  _466
REMARK  196  A    between atoms: _466  and  _467
REMARK  197  A    between atoms: _466  and  _469
REMARK  198  A    between atoms: _469  and  _470
REMARK  199  A    between atoms: _473  and  _475
REMARK  200  A    between atoms: _475  and  _476
REMARK  201  A    between atoms: _475  and  _478
REMARK  202  A    between atoms: _478  and  _479
REMARK  203  A    between atoms: _484  and  _486
REMARK  204  A    between atoms: _486  and  _487
REMARK  205  A    between atoms: _486  and  _489
REMARK  206  A    between atoms: _489  and  _490
REMARK  207  A    between atoms: _493  and  _495
REMARK  208  A    between atoms: _495  and  _496
REMARK  209  A    between atoms: _495  and  _498
REMARK  210  A    between atoms: _498  and  _499
REMARK  211  A    between atoms: _505  and  _507
REMARK  212  A    between atoms: _507  and  _508
REMARK  213  A    between atoms: _510  and  _512
REMARK  214  A    between atoms: _512  and  _513
REMARK  215  A    between atoms: _512  and  _515
REMARK  216  A    between atoms: _515  and  _516
REMARK  217  A    between atoms: _516  and  _517
REMARK  218  A    between atoms: _517  and  _518
REMARK  219  A    between atoms: _527  and  _529
REMARK  220  A    between atoms: _529  and  _530
REMARK  221  A    between atoms: _529  and  _532
REMARK  222  A    between atoms: _532  and  _533
REMARK                            x       y       z     vdW  Elec       q    Type
REMARK                         _______ _______ _______ _____ _____    ______ ____
ROOT
ATOM      1  C   GLY A   3      22.866  17.444  19.429  0.00  0.00    +0.243 C 
ATOM      2  N   GLY A   4      22.071  16.941  20.349  0.00  0.00    -0.295 N 
ATOM      3  H   GLY A   4      21.886  17.522  21.191  0.00  0.00    +0.150 HD
ATOM      4  O   GLY A   3      23.141  16.863  18.384  0.00  0.00    -0.273 OA
ENDROOT
BRANCH   1   5
ATOM      5  CA  GLY A   3      23.463  18.808  19.713  0.00  0.00    +0.176 C 
BRANCH   5   8
ATOM      6  C   VAL A   2      25.815  18.903  20.343  0.00  0.00    +0.241 C 
ATOM      7  O   VAL A   2      25.539  18.936  21.548  0.00  0.00    -0.273 OA
ATOM      8  N   GLY A   3      24.890  18.827  19.388  0.00  0.00    -0.295 N 
ATOM      9  H   GLY A   3      25.187  18.780  18.392  0.00  0.00    +0.150 HD
BRANCH   6  10
ATOM     10  CA  VAL A   2      27.274  18.963  19.897  0.00  0.00    +0.148 C 
BRANCH  10  12
ATOM     11  C   ILE A   1      28.632  21.008  20.032  0.00  0.00    +0.238 C 
ATOM     12  N   VAL A   2      28.035  19.977  20.617  0.00  0.00    -0.297 N 
ATOM     13  H   VAL A   2      28.115  19.887  21.650  0.00  0.00    +0.150 HD
ATOM     14  O   ILE A   1      28.533  21.289  18.845  0.00  0.00    -0.274 OA
BRANCH  11  15
ATOM     15  CA  ILE A   1      29.502  21.887  20.921  0.00  0.00    +0.145 C 
BRANCH  15  16
ATOM     16  CB  ILE A   1      28.925  23.310  21.075  0.00  0.00    +0.025 C 
ATOM     17  CG2 ILE A   1      27.477  23.278  21.537  0.00  0.00    +0.002 C 
BRANCH  16  18
ATOM     18  CG1 ILE A   1      29.783  24.197  21.993  0.00  0.00    +0.002 C 
ATOM     19  CD1 ILE A   1      29.433  25.659  21.955  0.00  0.00    +0.000 C 
ENDBRANCH  16  18
ENDBRANCH  15  16
BRANCH  15  20
ATOM     20  N   ILE A   1      30.832  21.951  20.353  0.00  0.00    -0.238 NA
ATOM     21  H   ILE A   1      30.966  22.372  19.412  0.00  0.00    +0.142 HD
ENDBRANCH  15  20
ENDBRANCH  11  15
ENDBRANCH  10  12
BRANCH  10  22
ATOM     22  CB  VAL A   2      27.943  17.587  20.111  0.00  0.00    +0.027 C 
ATOM     23  CG2 VAL A   2      27.016  16.469  19.678  0.00  0.00    +0.002 C 
ATOM     24  CG1 VAL A   2      29.266  17.529  19.358  0.00  0.00    +0.002 C 
ENDBRANCH  10  22
ENDBRANCH   6  10
ENDBRANCH   5   8
ENDBRANCH   1   5
BRANCH   2  25
ATOM     25  CA  GLY A   4      21.433  15.643  20.282  0.00  0.00    +0.176 C 
BRANCH  25  26
ATOM     26  C   GLY A   4      19.957  15.767  20.592  0.00  0.00    +0.243 C 
ATOM     27  N   ILE A   5      19.286  14.664  20.853  0.00  0.00    -0.297 N 
ATOM     28  H   ILE A   5      19.778  13.752  20.937  0.00  0.00    +0.150 HD
ATOM     29  O   GLY A   4      19.434  16.902  20.596  0.00  0.00    -0.273 OA
BRANCH  27  30
ATOM     30  CA  ILE A   5      17.835  14.747  21.022  0.00  0.00    +0.149 C 
BRANCH  30  31
ATOM     31  C   ILE A   5      17.432  15.593  22.227  0.00  0.00    +0.241 C 
ATOM     32  N   GLY A   6      18.242  15.655  23.281  0.00  0.00    -0.295 N 
ATOM     33  H   GLY A   6      19.171  15.189  23.243  0.00  0.00    +0.150 HD
ATOM     34  O   ILE A   5      16.363  16.214  22.209  0.00  0.00    -0.273 OA
BRANCH  32  35
ATOM     35  CA  GLY A   6      17.838  16.375  24.499  0.00  0.00    +0.176 C 
BRANCH  35  36
ATOM     36  C   GLY A   6      18.452  17.751  24.617  0.00  0.00    +0.243 C 
ATOM     37  O   GLY A   6      18.185  18.544  25.534  0.00  0.00    -0.273 OA
ATOM     38  N   GLY A   7      19.317  18.133  23.671  0.00  0.00    -0.296 N 
ATOM     39  H   GLY A   7      19.521  17.545  22.838  0.00  0.00    +0.150 HD
BRANCH  38  40
ATOM     40  CA  GLY A   7      19.958  19.433  23.883  0.00  0.00    +0.163 C 
BRANCH  40  41
ATOM     41  C   GLY A   7      21.440  19.357  23.561  0.00  0.00    +0.229 C 
ATOM     42  O   GLY A   7      21.790  18.503  22.733  0.00  0.00    -0.286 OA
ENDBRANCH  40  41
ENDBRANCH  38  40
ENDBRANCH  35  36
ENDBRANCH  32  35
ENDBRANCH  30  31
BRANCH  30  43
ATOM     43  CB  ILE A   5      17.198  13.350  21.153  0.00  0.00    +0.027 C 
ATOM     44  CG2 ILE A   5      17.394  12.813  22.565  0.00  0.00    +0.002 C 
BRANCH  43  45
ATOM     45  CG1 ILE A   5      15.725  13.346  20.725  0.00  0.00    +0.002 C 
ATOM     46  CD1 ILE A   5      15.107  11.982  20.482  0.00  0.00    +0.000 C 
ENDBRANCH  43  45
ENDBRANCH  30  43
ENDBRANCH  27  30
ENDBRANCH  25  26
ENDBRANCH   2  25
TORSDOF 19
REMARK  Name = ../refined-set-2016/3s45/3s45_pocket.pdb
REMARK  222 active torsions:
REMARK  status: ('A' for Active; 'I' for Inactive)
REMARK    1  A    between atoms: _1  and  _3
REMARK    2  A    between atoms: _3  and  _4
REMARK    3  A    between atoms: _3  and  _6
REMARK    4  A    between atoms: _6  and  _7
REMARK    5  A    between atoms: _7  and  _8
REMARK    6  A    between atoms: _8  and  _9
REMARK    7  A    between atoms: _18  and  _20
REMARK    8  A    between atoms: _20  and  _21
REMARK    9  A    between atoms: _20  and  _23
REMARK   10  A    between atoms: _23  and  _24
REMARK   11  A    between atoms: _27  and  _29
REMARK   12  A    between atoms: _29  and  _30
REMARK   13  A    between atoms: _29  and  _32
REMARK   14  A    between atoms: _32  and  _33
REMARK   15  A    between atoms: _36  and  _38
REMARK   16  A    between atoms: _38  and  _39
REMARK   17  A    between atoms: _38  and  _41
REMARK   18  A    between atoms: _41  and  _42
REMARK   19  A    between atoms: _45  and  _47
REMARK   20  A    between atoms: _47  and  _48
REMARK   21  A    between atoms: _47  and  _50
REMARK   22  A    between atoms: _50  and  _51
REMARK   23  A    between atoms: _54  and  _56
REMARK   24  A    between atoms: _56  and  _57
REMARK   25  A    between atoms: _59  and  _61
REMARK   26  A    between atoms: _61  and  _62
REMARK   27  A    between atoms: _65  and  _67
REMARK   28  A    between atoms: _67  and  _68
REMARK   29  A    between atoms: _67  and  _70
REMARK   30  A    between atoms: _70  and  _71
REMARK   31  A    between atoms: _74  and  _76
REMARK   32  A    between atoms: _76  and  _77
REMARK   33  A    between atoms: _76  and  _79
REMARK   34  A    between atoms: _79  and  _80
REMARK   35  A    between atoms: _83  and  _85
REMARK   36  A    between atoms: _85  and  _86
REMARK   37  A    between atoms: _85  and  _88
REMARK   38  A    between atoms: _88  and  _89
REMARK   39  A    between atoms: _91  and  _93
REMARK   40  A    between atoms: _93  and  _94
REMARK   41  A    between atoms: _93  and  _96
REMARK   42  A    between atoms: _96  and  _97
REMARK   43  A    between atoms: _100  and  _102
REMARK   44  A    between atoms: _102  and  _103
REMARK   45  A    between atoms: _102  and  _105
REMARK   46  A    between atoms: _105  and  _106
REMARK   47  A    between atoms: _106  and  _107
REMARK   48  A    between atoms: _107  and  _108
REMARK   49  A    between atoms: _108  and  _109
REMARK   50  A    between atoms: _113  and  _115
REMARK   51  A    between atoms: _115  and  _116
REMARK   52  A    between atoms: _115  and  _118
REMARK   53  A    between atoms: _118  and  _119
REMARK   54  A    between atoms: _122  and  _124
REMARK   55  A    between atoms: _124  and  _125
REMARK   56  A    between atoms: _124  and  _127
REMARK   57  A    between atoms: _130  and  _132
REMARK   58  A    between atoms: _132  and  _133
REMARK   59  A    between atoms: _135  and  _137
REMARK   60  A    between atoms: _137  and  _138
REMARK   61  A    between atoms: _140  and  _142
REMARK   62  A    between atoms: _142  and  _143
REMARK   63  A    between atoms: _142  and  _145
REMARK   64  A    between atoms: _145  and  _146
REMARK   65  A    between atoms: _149  and  _151
REMARK   66  A    between atoms: _151  and  _152
REMARK   67  A    between atoms: _154  and  _156
REMARK   68  A    between atoms: _156  and  _157
REMARK   69  A    between atoms: _159  and  _161
REMARK   70  A    between atoms: _161  and  _162
REMARK   71  A    between atoms: _161  and  _164
REMARK   72  A    between atoms: _164  and  _165
REMARK   73  A    between atoms: _168  and  _170
REMARK   74  A    between atoms: _170  and  _171
REMARK   75  A    between atoms: _170  and  _173
REMARK   76  A    between atoms: _173  and  _174
REMARK   77  A    between atoms: _177  and  _179
REMARK   78  A    between atoms: _179  and  _180
REMARK   79  A    between atoms: _179  and  _182
REMARK   80  A    between atoms: _182  and  _183
REMARK   81  A    between atoms: _183  and  _184
REMARK   82  A    between atoms: _186  and  _188
REMARK   83  A    between atoms: _188  and  _189
REMARK   84  A    between atoms: _188  and  _191
REMARK   85  A    between atoms: _191  and  _192
REMARK   86  A    between atoms: _196  and  _197
REMARK   87  A    between atoms: _202  and  _204
REMARK   88  A    between atoms: _204  and  _205
REMARK   89  A    between atoms: _204  and  _207
REMARK   90  A    between atoms: _207  and  _208
REMARK   91  A    between atoms: _211  and  _213
REMARK   92  A    between atoms: _213  and  _214
REMARK   93  A    between atoms: _213  and  _216
REMARK   94  A    between atoms: _216  and  _217
REMARK   95  A    between atoms: _222  and  _224
REMARK   96  A    between atoms: _224  and  _225
REMARK   97  A    between atoms: _224  and  _227
REMARK   98  A    between atoms: _227  and  _228
REMARK   99  A    between atoms: _231  and  _233
REMARK  100  A    between atoms: _233  and  _234
REMARK  101  A    between atoms: _233  and  _236
REMARK  102  A    between atoms: _236  and  _237
REMARK  103  A    between atoms: _243  and  _245
REMARK  104  A    between atoms: _245  and  _246
REMARK  105  A    between atoms: _248  and  _250
REMARK  106  A    between atoms: _250  and  _251
REMARK  107  A    between atoms: _250  and  _253
REMARK  108  A    between atoms: _253  and  _254
REMARK  109  A    between atoms: _254  and  _255
REMARK  110  A    between atoms: _255  and  _256
REMARK  111  A    between atoms: _265  and  _267
REMARK  112  A    between atoms: _267  and  _268
REMARK  113  A    between atoms: _267  and  _270
REMARK  114  A    between atoms: _270  and  _271
REMARK  115  A    between atoms: _276  and  _278
REMARK  116  A    between atoms: _278  and  _279
REMARK  117  A    between atoms: _278  and  _281
REMARK  118  A    between atoms: _281  and  _282
REMARK  119  A    between atoms: _282  and  _283
REMARK  120  A    between atoms: _283  and  _284
REMARK  121  A    between atoms: _293  and  _295
REMARK  122  A    between atoms: _295  and  _296
REMARK  123  A    between atoms: _295  and  _298
REMARK  124  A    between atoms: _298  and  _299
REMARK  125  A    between atoms: _302  and  _304
REMARK  126  A    between atoms: _304  and  _305
REMARK  127  A    between atoms: _304  and  _307
REMARK  128  A    between atoms: _307  and  _308
REMARK  129  A    between atoms: _311  and  _313
REMARK  130  A    between atoms: _313  and  _314
REMARK  131  A    between atoms: _313  and  _316
REMARK  132  A    between atoms: _316  and  _317
REMARK  133  A    between atoms: _320  and  _322
REMARK  134  A    between atoms: _322  and  _323
REMARK  135  A    between atoms: _322  and  _325
REMARK  136  A    between atoms: _325  and  _326
REMARK  137  A    between atoms: _329  and  _331
REMARK  138  A    between atoms: _331  and  _332
REMARK  139  A    between atoms: _334  and  _336
REMARK  140  A    between atoms: _336  and  _337
REMARK  141  A    between atoms: _340  and  _342
REMARK  142  A    between atoms: _342  and  _343
REMARK  143  A    between atoms: _342  and  _345
REMARK  144  A    between atoms: _345  and  _346
REMARK  145  A    between atoms: _349  and  _351
REMARK  146  A    between atoms: _351  and  _352
REMARK  147  A    between atoms: _351  and  _354
REMARK  148  A    between atoms: _354  and  _355
REMARK  149  A    between atoms: _355  and  _357
REMARK  150  A    between atoms: _358  and  _360
REMARK  151  A    between atoms: _360  and  _361
REMARK  152  A    between atoms: _360  and  _363
REMARK  153  A    between atoms: _363  and  _364
REMARK  154  A    between atoms: _366  and  _368
REMARK  155  A    between atoms: _368  and  _369
REMARK  156  A    between atoms: _368  and  _371
REMARK  157  A    between atoms: _371  and  _372
REMARK  158  A    between atoms: _375  and  _377
REMARK  159  A    between atoms: _377  and  _378
REMARK  160  A    between atoms: _377  and  _380
REMARK  161  A    between atoms: _380  and  _381
REMARK  162  A    between atoms: _384  and  _386
REMARK  163  A    between atoms: _386  and  _387
REMARK  164  A    between atoms: _386  and  _389
REMARK  165  A    between atoms: _392  and  _394
REMARK  166  A    between atoms: _394  and  _395
REMARK  167  A    between atoms: _397  and  _399
REMARK  168  A    between atoms: _399  and  _400
REMARK  169  A    between atoms: _402  and  _404
REMARK  170  A    between atoms: _404  and  _405
REMARK  171  A    between atoms: _404  and  _407
REMARK  172  A    between atoms: _407  and  _408
REMARK  173  A    between atoms: _411  and  _413
REMARK  174  A    between atoms: _413  and  _414
REMARK  175  A    between atoms: _416  and  _418
REMARK  176  A    between atoms: _418  and  _419
REMARK  177  A    between atoms: _421  and  _423
REMARK  178  A    between atoms: _423  and  _424
REMARK  179  A    between atoms: _423  and  _426
REMARK  180  A    between atoms: _426  and  _427
REMARK  181  A    between atoms: _430  and  _432
REMARK  182  A    between atoms: _432  and  _433
REMARK  183  A    between atoms: _432  and  _435
REMARK  184  A    between atoms: _435  and  _436
REMARK  185  A    between atoms: _439  and  _441
REMARK  186  A    between atoms: _441  and  _442
REMARK  187  A    between atoms: _441  and  _444
REMARK  188  A    between atoms: _444  and  _445
REMARK  189  A    between atoms: _445  and  _446
REMARK  190  A    between atoms: _448  and  _450
REMARK  191  A    between atoms: _450  and  _451
REMARK  192  A    between atoms: _450  and  _453
REMARK  193  A    between atoms: _453  and  _454
REMARK  194  A    between atoms: _458  and  _459
REMARK  195  A    between atoms: _464  and  _466
REMARK  196  A    between atoms: _466  and  _467
REMARK  197  A    between atoms: _466  and  _469
REMARK  198  A    between atoms: _469  and  _470
REMARK  199  A    between atoms: _473  and  _475
REMARK  200  A    between atoms: _475  and  _476
REMARK  201  A    between atoms: _475  and  _478
REMARK  202  A    between atoms: _478  and  _479
REMARK  203  A    between atoms: _484  and  _486
REMARK  204  A    between atoms: _486  and  _487
REMARK  205  A    between atoms: _486  and  _489
REMARK  206  A    between atoms: _489  and  _490
REMARK  207  A    between atoms: _493  and  _495
REMARK  208  A    between atoms: _495  and  _496
REMARK  209  A    between atoms: _495  and  _498
REMARK  210  A    between atoms: _498  and  _499
REMARK  211  A    between atoms: _505  and  _507
REMARK  212  A    between atoms: _507  and  _508
REMARK  213  A    between atoms: _510  and  _512
REMARK  214  A    between atoms: _512  and  _513
REMARK  215  A    between atoms: _512  and  _515
REMARK  216  A    between atoms: _515  and  _516
REMARK  217  A    between atoms: _516  and  _517
REMARK  218  A    between atoms: _517  and  _518
REMARK  219  A    between atoms: _527  and  _529
REMARK  220  A    between atoms: _529  and  _530
REMARK  221  A    between atoms: _529  and  _532
REMARK  222  A    between atoms: _532  and  _533
REMARK                            x       y       z     vdW  Elec       q    Type
REMARK                         _______ _______ _______ _____ _____    ______ ____
ROOT
ATOM      1  CA  ILE A   1      26.868  19.025  25.286  0.00  0.00    +0.133 C 
ENDROOT
BRANCH   1   2
ATOM      2  N   ILE A   1      25.751  19.348  24.409  0.00  0.00    -0.239 NA
ATOM      3  H   ILE A   1      25.823  19.130  23.395  0.00  0.00    +0.142 HD
ENDBRANCH   1   2
BRANCH   1   4
ATOM      4  CB  ILE A   1      27.077  17.506  25.450  0.00  0.00    +0.023 C 
ATOM      5  CG2 ILE A   1      25.863  16.855  26.104  0.00  0.00    +0.002 C 
BRANCH   4   6
ATOM      6  CG1 ILE A   1      27.388  16.754  24.153  0.00  0.00    +0.002 C 
ATOM      7  CD1 ILE A   1      27.847  15.339  24.437  0.00  0.00    +0.000 C 
ENDBRANCH   4   6
ENDBRANCH   1   4
BRANCH   1   8
ATOM      8  C   ILE A   1      28.182  19.594  24.762  0.00  0.00    +0.224 C 
ATOM      9  O   ILE A   1      28.343  19.812  23.559  0.00  0.00    -0.287 OA
ENDBRANCH   1   8
TORSDOF 4
REMARK  Name = ../refined-set-2016/3s45/3s45_pocket.pdb
REMARK  222 active torsions:
REMARK  status: ('A' for Active; 'I' for Inactive)
REMARK    1  A    between atoms: _1  and  _3
REMARK    2  A    between atoms: _3  and  _4
REMARK    3  A    between atoms: _3  and  _6
REMARK    4  A    between atoms: _6  and  _7
REMARK    5  A    between atoms: _7  and  _8
REMARK    6  A    between atoms: _8  and  _9
REMARK    7  A    between atoms: _18  and  _20
REMARK    8  A    between atoms: _20  and  _21
REMARK    9  A    between atoms: _20  and  _23
REMARK   10  A    between atoms: _23  and  _24
REMARK   11  A    between atoms: _27  and  _29
REMARK   12  A    between atoms: _29  and  _30
REMARK   13  A    between atoms: _29  and  _32
REMARK   14  A    between atoms: _32  and  _33
REMARK   15  A    between atoms: _36  and  _38
REMARK   16  A    between atoms: _38  and  _39
REMARK   17  A    between atoms: _38  and  _41
REMARK   18  A    between atoms: _41  and  _42
REMARK   19  A    between atoms: _45  and  _47
REMARK   20  A    between atoms: _47  and  _48
REMARK   21  A    between atoms: _47  and  _50
REMARK   22  A    between atoms: _50  and  _51
REMARK   23  A    between atoms: _54  and  _56
REMARK   24  A    between atoms: _56  and  _57
REMARK   25  A    between atoms: _59  and  _61
REMARK   26  A    between atoms: _61  and  _62
REMARK   27  A    between atoms: _65  and  _67
REMARK   28  A    between atoms: _67  and  _68
REMARK   29  A    between atoms: _67  and  _70
REMARK   30  A    between atoms: _70  and  _71
REMARK   31  A    between atoms: _74  and  _76
REMARK   32  A    between atoms: _76  and  _77
REMARK   33  A    between atoms: _76  and  _79
REMARK   34  A    between atoms: _79  and  _80
REMARK   35  A    between atoms: _83  and  _85
REMARK   36  A    between atoms: _85  and  _86
REMARK   37  A    between atoms: _85  and  _88
REMARK   38  A    between atoms: _88  and  _89
REMARK   39  A    between atoms: _91  and  _93
REMARK   40  A    between atoms: _93  and  _94
REMARK   41  A    between atoms: _93  and  _96
REMARK   42  A    between atoms: _96  and  _97
REMARK   43  A    between atoms: _100  and  _102
REMARK   44  A    between atoms: _102  and  _103
REMARK   45  A    between atoms: _102  and  _105
REMARK   46  A    between atoms: _105  and  _106
REMARK   47  A    between atoms: _106  and  _107
REMARK   48  A    between atoms: _107  and  _108
REMARK   49  A    between atoms: _108  and  _109
REMARK   50  A    between atoms: _113  and  _115
REMARK   51  A    between atoms: _115  and  _116
REMARK   52  A    between atoms: _115  and  _118
REMARK   53  A    between atoms: _118  and  _119
REMARK   54  A    between atoms: _122  and  _124
REMARK   55  A    between atoms: _124  and  _125
REMARK   56  A    between atoms: _124  and  _127
REMARK   57  A    between atoms: _130  and  _132
REMARK   58  A    between atoms: _132  and  _133
REMARK   59  A    between atoms: _135  and  _137
REMARK   60  A    between atoms: _137  and  _138
REMARK   61  A    between atoms: _140  and  _142
REMARK   62  A    between atoms: _142  and  _143
REMARK   63  A    between atoms: _142  and  _145
REMARK   64  A    between atoms: _145  and  _146
REMARK   65  A    between atoms: _149  and  _151
REMARK   66  A    between atoms: _151  and  _152
REMARK   67  A    between atoms: _154  and  _156
REMARK   68  A    between atoms: _156  and  _157
REMARK   69  A    between atoms: _159  and  _161
REMARK   70  A    between atoms: _161  and  _162
REMARK   71  A    between atoms: _161  and  _164
REMARK   72  A    between atoms: _164  and  _165
REMARK   73  A    between atoms: _168  and  _170
REMARK   74  A    between atoms: _170  and  _171
REMARK   75  A    between atoms: _170  and  _173
REMARK   76  A    between atoms: _173  and  _174
REMARK   77  A    between atoms: _177  and  _179
REMARK   78  A    between atoms: _179  and  _180
REMARK   79  A    between atoms: _179  and  _182
REMARK   80  A    between atoms: _182  and  _183
REMARK   81  A    between atoms: _183  and  _184
REMARK   82  A    between atoms: _186  and  _188
REMARK   83  A    between atoms: _188  and  _189
REMARK   84  A    between atoms: _188  and  _191
REMARK   85  A    between atoms: _191  and  _192
REMARK   86  A    between atoms: _196  and  _197
REMARK   87  A    between atoms: _202  and  _204
REMARK   88  A    between atoms: _204  and  _205
REMARK   89  A    between atoms: _204  and  _207
REMARK   90  A    between atoms: _207  and  _208
REMARK   91  A    between atoms: _211  and  _213
REMARK   92  A    between atoms: _213  and  _214
REMARK   93  A    between atoms: _213  and  _216
REMARK   94  A    between atoms: _216  and  _217
REMARK   95  A    between atoms: _222  and  _224
REMARK   96  A    between atoms: _224  and  _225
REMARK   97  A    between atoms: _224  and  _227
REMARK   98  A    between atoms: _227  and  _228
REMARK   99  A    between atoms: _231  and  _233
REMARK  100  A    between atoms: _233  and  _234
REMARK  101  A    between atoms: _233  and  _236
REMARK  102  A    between atoms: _236  and  _237
REMARK  103  A    between atoms: _243  and  _245
REMARK  104  A    between atoms: _245  and  _246
REMARK  105  A    between atoms: _248  and  _250
REMARK  106  A    between atoms: _250  and  _251
REMARK  107  A    between atoms: _250  and  _253
REMARK  108  A    between atoms: _253  and  _254
REMARK  109  A    between atoms: _254  and  _255
REMARK  110  A    between atoms: _255  and  _256
REMARK  111  A    between atoms: _265  and  _267
REMARK  112  A    between atoms: _267  and  _268
REMARK  113  A    between atoms: _267  and  _270
REMARK  114  A    between atoms: _270  and  _271
REMARK  115  A    between atoms: _276  and  _278
REMARK  116  A    between atoms: _278  and  _279
REMARK  117  A    between atoms: _278  and  _281
REMARK  118  A    between atoms: _281  and  _282
REMARK  119  A    between atoms: _282  and  _283
REMARK  120  A    between atoms: _283  and  _284
REMARK  121  A    between atoms: _293  and  _295
REMARK  122  A    between atoms: _295  and  _296
REMARK  123  A    between atoms: _295  and  _298
REMARK  124  A    between atoms: _298  and  _299
REMARK  125  A    between atoms: _302  and  _304
REMARK  126  A    between atoms: _304  and  _305
REMARK  127  A    between atoms: _304  and  _307
REMARK  128  A    between atoms: _307  and  _308
REMARK  129  A    between atoms: _311  and  _313
REMARK  130  A    between atoms: _313  and  _314
REMARK  131  A    between atoms: _313  and  _316
REMARK  132  A    between atoms: _316  and  _317
REMARK  133  A    between atoms: _320  and  _322
REMARK  134  A    between atoms: _322  and  _323
REMARK  135  A    between atoms: _322  and  _325
REMARK  136  A    between atoms: _325  and  _326
REMARK  137  A    between atoms: _329  and  _331
REMARK  138  A    between atoms: _331  and  _332
REMARK  139  A    between atoms: _334  and  _336
REMARK  140  A    between atoms: _336  and  _337
REMARK  141  A    between atoms: _340  and  _342
REMARK  142  A    between atoms: _342  and  _343
REMARK  143  A    between atoms: _342  and  _345
REMARK  144  A    between atoms: _345  and  _346
REMARK  145  A    between atoms: _349  and  _351
REMARK  146  A    between atoms: _351  and  _352
REMARK  147  A    between atoms: _351  and  _354
REMARK  148  A    between atoms: _354  and  _355
REMARK  149  A    between atoms: _355  and  _357
REMARK  150  A    between atoms: _358  and  _360
REMARK  151  A    between atoms: _360  and  _361
REMARK  152  A    between atoms: _360  and  _363
REMARK  153  A    between atoms: _363  and  _364
REMARK  154  A    between atoms: _366  and  _368
REMARK  155  A    between atoms: _368  and  _369
REMARK  156  A    between atoms: _368  and  _371
REMARK  157  A    between atoms: _371  and  _372
REMARK  158  A    between atoms: _375  and  _377
REMARK  159  A    between atoms: _377  and  _378
REMARK  160  A    between atoms: _377  and  _380
REMARK  161  A    between atoms: _380  and  _381
REMARK  162  A    between atoms: _384  and  _386
REMARK  163  A    between atoms: _386  and  _387
REMARK  164  A    between atoms: _386  and  _389
REMARK  165  A    between atoms: _392  and  _394
REMARK  166  A    between atoms: _394  and  _395
REMARK  167  A    between atoms: _397  and  _399
REMARK  168  A    between atoms: _399  and  _400
REMARK  169  A    between atoms: _402  and  _404
REMARK  170  A    between atoms: _404  and  _405
REMARK  171  A    between atoms: _404  and  _407
REMARK  172  A    between atoms: _407  and  _408
REMARK  173  A    between atoms: _411  and  _413
REMARK  174  A    between atoms: _413  and  _414
REMARK  175  A    between atoms: _416  and  _418
REMARK  176  A    between atoms: _418  and  _419
REMARK  177  A    between atoms: _421  and  _423
REMARK  178  A    between atoms: _423  and  _424
REMARK  179  A    between atoms: _423  and  _426
REMARK  180  A    between atoms: _426  and  _427
REMARK  181  A    between atoms: _430  and  _432
REMARK  182  A    between atoms: _432  and  _433
REMARK  183  A    between atoms: _432  and  _435
REMARK  184  A    between atoms: _435  and  _436
REMARK  185  A    between atoms: _439  and  _441
REMARK  186  A    between atoms: _441  and  _442
REMARK  187  A    between atoms: _441  and  _444
REMARK  188  A    between atoms: _444  and  _445
REMARK  189  A    between atoms: _445  and  _446
REMARK  190  A    between atoms: _448  and  _450
REMARK  191  A    between atoms: _450  and  _451
REMARK  192  A    between atoms: _450  and  _453
REMARK  193  A    between atoms: _453  and  _454
REMARK  194  A    between atoms: _458  and  _459
REMARK  195  A    between atoms: _464  and  _466
REMARK  196  A    between atoms: _466  and  _467
REMARK  197  A    between atoms: _466  and  _469
REMARK  198  A    between atoms: _469  and  _470
REMARK  199  A    between atoms: _473  and  _475
REMARK  200  A    between atoms: _475  and  _476
REMARK  201  A    between atoms: _475  and  _478
REMARK  202  A    between atoms: _478  and  _479
REMARK  203  A    between atoms: _484  and  _486
REMARK  204  A    between atoms: _486  and  _487
REMARK  205  A    between atoms: _486  and  _489
REMARK  206  A    between atoms: _489  and  _490
REMARK  207  A    between atoms: _493  and  _495
REMARK  208  A    between atoms: _495  and  _496
REMARK  209  A    between atoms: _495  and  _498
REMARK  210  A    between atoms: _498  and  _499
REMARK  211  A    between atoms: _505  and  _507
REMARK  212  A    between atoms: _507  and  _508
REMARK  213  A    between atoms: _510  and  _512
REMARK  214  A    between atoms: _512  and  _513
REMARK  215  A    between atoms: _512  and  _515
REMARK  216  A    between atoms: _515  and  _516
REMARK  217  A    between atoms: _516  and  _517
REMARK  218  A    between atoms: _517  and  _518
REMARK  219  A    between atoms: _527  and  _529
REMARK  220  A    between atoms: _529  and  _530
REMARK  221  A    between atoms: _529  and  _532
REMARK  222  A    between atoms: _532  and  _533
REMARK                            x       y       z     vdW  Elec       q    Type
REMARK                         _______ _______ _______ _____ _____    ______ ____
ROOT
ATOM      1  CA  THR A   1      32.900  17.674  23.634  0.00  0.00    +0.160 C 
ENDROOT
BRANCH   1   2
ATOM      2  N   THR A   1      32.068  18.828  23.944  0.00  0.00    -0.237 NA
ATOM      3  H   THR A   1      32.153  19.672  23.342  0.00  0.00    +0.142 HD
ENDBRANCH   1   2
BRANCH   1   4
ATOM      4  C   THR A   1      34.341  18.154  23.421  0.00  0.00    +0.227 C 
ATOM      5  O   THR A   1      34.613  19.343  23.240  0.00  0.00    -0.287 OA
ENDBRANCH   1   4
BRANCH   1   6
ATOM      6  CB  THR A   1      32.465  16.936  22.357  0.00  0.00    +0.134 C 
ATOM      7  CG2 THR A   1      30.963  16.631  22.357  0.00  0.00    +0.034 C 
BRANCH   6   8
ATOM      8  OG1 THR A   1      32.702  17.770  21.227  0.00  0.00    -0.383 OA
ATOM      9  HG1 THR A   1      32.422  17.296  20.404  0.00  0.00    +0.210 HD
ENDBRANCH   6   8
ENDBRANCH   1   6
TORSDOF 4
REMARK  Name = ../refined-set-2016/3s45/3s45_pocket.pdb
REMARK  222 active torsions:
REMARK  status: ('A' for Active; 'I' for Inactive)
REMARK    1  A    between atoms: _1  and  _3
REMARK    2  A    between atoms: _3  and  _4
REMARK    3  A    between atoms: _3  and  _6
REMARK    4  A    between atoms: _6  and  _7
REMARK    5  A    between atoms: _7  and  _8
REMARK    6  A    between atoms: _8  and  _9
REMARK    7  A    between atoms: _18  and  _20
REMARK    8  A    between atoms: _20  and  _21
REMARK    9  A    between atoms: _20  and  _23
REMARK   10  A    between atoms: _23  and  _24
REMARK   11  A    between atoms: _27  and  _29
REMARK   12  A    between atoms: _29  and  _30
REMARK   13  A    between atoms: _29  and  _32
REMARK   14  A    between atoms: _32  and  _33
REMARK   15  A    between atoms: _36  and  _38
REMARK   16  A    between atoms: _38  and  _39
REMARK   17  A    between atoms: _38  and  _41
REMARK   18  A    between atoms: _41  and  _42
REMARK   19  A    between atoms: _45  and  _47
REMARK   20  A    between atoms: _47  and  _48
REMARK   21  A    between atoms: _47  and  _50
REMARK   22  A    between atoms: _50  and  _51
REMARK   23  A    between atoms: _54  and  _56
REMARK   24  A    between atoms: _56  and  _57
REMARK   25  A    between atoms: _59  and  _61
REMARK   26  A    between atoms: _61  and  _62
REMARK   27  A    between atoms: _65  and  _67
REMARK   28  A    between atoms: _67  and  _68
REMARK   29  A    between atoms: _67  and  _70
REMARK   30  A    between atoms: _70  and  _71
REMARK   31  A    between atoms: _74  and  _76
REMARK   32  A    between atoms: _76  and  _77
REMARK   33  A    between atoms: _76  and  _79
REMARK   34  A    between atoms: _79  and  _80
REMARK   35  A    between atoms: _83  and  _85
REMARK   36  A    between atoms: _85  and  _86
REMARK   37  A    between atoms: _85  and  _88
REMARK   38  A    between atoms: _88  and  _89
REMARK   39  A    between atoms: _91  and  _93
REMARK   40  A    between atoms: _93  and  _94
REMARK   41  A    between atoms: _93  and  _96
REMARK   42  A    between atoms: _96  and  _97
REMARK   43  A    between atoms: _100  and  _102
REMARK   44  A    between atoms: _102  and  _103
REMARK   45  A    between atoms: _102  and  _105
REMARK   46  A    between atoms: _105  and  _106
REMARK   47  A    between atoms: _106  and  _107
REMARK   48  A    between atoms: _107  and  _108
REMARK   49  A    between atoms: _108  and  _109
REMARK   50  A    between atoms: _113  and  _115
REMARK   51  A    between atoms: _115  and  _116
REMARK   52  A    between atoms: _115  and  _118
REMARK   53  A    between atoms: _118  and  _119
REMARK   54  A    between atoms: _122  and  _124
REMARK   55  A    between atoms: _124  and  _125
REMARK   56  A    between atoms: _124  and  _127
REMARK   57  A    between atoms: _130  and  _132
REMARK   58  A    between atoms: _132  and  _133
REMARK   59  A    between atoms: _135  and  _137
REMARK   60  A    between atoms: _137  and  _138
REMARK   61  A    between atoms: _140  and  _142
REMARK   62  A    between atoms: _142  and  _143
REMARK   63  A    between atoms: _142  and  _145
REMARK   64  A    between atoms: _145  and  _146
REMARK   65  A    between atoms: _149  and  _151
REMARK   66  A    between atoms: _151  and  _152
REMARK   67  A    between atoms: _154  and  _156
REMARK   68  A    between atoms: _156  and  _157
REMARK   69  A    between atoms: _159  and  _161
REMARK   70  A    between atoms: _161  and  _162
REMARK   71  A    between atoms: _161  and  _164
REMARK   72  A    between atoms: _164  and  _165
REMARK   73  A    between atoms: _168  and  _170
REMARK   74  A    between atoms: _170  and  _171
REMARK   75  A    between atoms: _170  and  _173
REMARK   76  A    between atoms: _173  and  _174
REMARK   77  A    between atoms: _177  and  _179
REMARK   78  A    between atoms: _179  and  _180
REMARK   79  A    between atoms: _179  and  _182
REMARK   80  A    between atoms: _182  and  _183
REMARK   81  A    between atoms: _183  and  _184
REMARK   82  A    between atoms: _186  and  _188
REMARK   83  A    between atoms: _188  and  _189
REMARK   84  A    between atoms: _188  and  _191
REMARK   85  A    between atoms: _191  and  _192
REMARK   86  A    between atoms: _196  and  _197
REMARK   87  A    between atoms: _202  and  _204
REMARK   88  A    between atoms: _204  and  _205
REMARK   89  A    between atoms: _204  and  _207
REMARK   90  A    between atoms: _207  and  _208
REMARK   91  A    between atoms: _211  and  _213
REMARK   92  A    between atoms: _213  and  _214
REMARK   93  A    between atoms: _213  and  _216
REMARK   94  A    between atoms: _216  and  _217
REMARK   95  A    between atoms: _222  and  _224
REMARK   96  A    between atoms: _224  and  _225
REMARK   97  A    between atoms: _224  and  _227
REMARK   98  A    between atoms: _227  and  _228
REMARK   99  A    between atoms: _231  and  _233
REMARK  100  A    between atoms: _233  and  _234
REMARK  101  A    between atoms: _233  and  _236
REMARK  102  A    between atoms: _236  and  _237
REMARK  103  A    between atoms: _243  and  _245
REMARK  104  A    between atoms: _245  and  _246
REMARK  105  A    between atoms: _248  and  _250
REMARK  106  A    between atoms: _250  and  _251
REMARK  107  A    between atoms: _250  and  _253
REMARK  108  A    between atoms: _253  and  _254
REMARK  109  A    between atoms: _254  and  _255
REMARK  110  A    between atoms: _255  and  _256
REMARK  111  A    between atoms: _265  and  _267
REMARK  112  A    between atoms: _267  and  _268
REMARK  113  A    between atoms: _267  and  _270
REMARK  114  A    between atoms: _270  and  _271
REMARK  115  A    between atoms: _276  and  _278
REMARK  116  A    between atoms: _278  and  _279
REMARK  117  A    between atoms: _278  and  _281
REMARK  118  A    between atoms: _281  and  _282
REMARK  119  A    between atoms: _282  and  _283
REMARK  120  A    between atoms: _283  and  _284
REMARK  121  A    between atoms: _293  and  _295
REMARK  122  A    between atoms: _295  and  _296
REMARK  123  A    between atoms: _295  and  _298
REMARK  124  A    between atoms: _298  and  _299
REMARK  125  A    between atoms: _302  and  _304
REMARK  126  A    between atoms: _304  and  _305
REMARK  127  A    between atoms: _304  and  _307
REMARK  128  A    between atoms: _307  and  _308
REMARK  129  A    between atoms: _311  and  _313
REMARK  130  A    between atoms: _313  and  _314
REMARK  131  A    between atoms: _313  and  _316
REMARK  132  A    between atoms: _316  and  _317
REMARK  133  A    between atoms: _320  and  _322
REMARK  134  A    between atoms: _322  and  _323
REMARK  135  A    between atoms: _322  and  _325
REMARK  136  A    between atoms: _325  and  _326
REMARK  137  A    between atoms: _329  and  _331
REMARK  138  A    between atoms: _331  and  _332
REMARK  139  A    between atoms: _334  and  _336
REMARK  140  A    between atoms: _336  and  _337
REMARK  141  A    between atoms: _340  and  _342
REMARK  142  A    between atoms: _342  and  _343
REMARK  143  A    between atoms: _342  and  _345
REMARK  144  A    between atoms: _345  and  _346
REMARK  145  A    between atoms: _349  and  _351
REMARK  146  A    between atoms: _351  and  _352
REMARK  147  A    between atoms: _351  and  _354
REMARK  148  A    between atoms: _354  and  _355
REMARK  149  A    between atoms: _355  and  _357
REMARK  150  A    between atoms: _358  and  _360
REMARK  151  A    between atoms: _360  and  _361
REMARK  152  A    between atoms: _360  and  _363
REMARK  153  A    between atoms: _363  and  _364
REMARK  154  A    between atoms: _366  and  _368
REMARK  155  A    between atoms: _368  and  _369
REMARK  156  A    between atoms: _368  and  _371
REMARK  157  A    between atoms: _371  and  _372
REMARK  158  A    between atoms: _375  and  _377
REMARK  159  A    between atoms: _377  and  _378
REMARK  160  A    between atoms: _377  and  _380
REMARK  161  A    between atoms: _380  and  _381
REMARK  162  A    between atoms: _384  and  _386
REMARK  163  A    between atoms: _386  and  _387
REMARK  164  A    between atoms: _386  and  _389
REMARK  165  A    between atoms: _392  and  _394
REMARK  166  A    between atoms: _394  and  _395
REMARK  167  A    between atoms: _397  and  _399
REMARK  168  A    between atoms: _399  and  _400
REMARK  169  A    between atoms: _402  and  _404
REMARK  170  A    between atoms: _404  and  _405
REMARK  171  A    between atoms: _404  and  _407
REMARK  172  A    between atoms: _407  and  _408
REMARK  173  A    between atoms: _411  and  _413
REMARK  174  A    between atoms: _413  and  _414
REMARK  175  A    between atoms: _416  and  _418
REMARK  176  A    between atoms: _418  and  _419
REMARK  177  A    between atoms: _421  and  _423
REMARK  178  A    between atoms: _423  and  _424
REMARK  179  A    between atoms: _423  and  _426
REMARK  180  A    between atoms: _426  and  _427
REMARK  181  A    between atoms: _430  and  _432
REMARK  182  A    between atoms: _432  and  _433
REMARK  183  A    between atoms: _432  and  _435
REMARK  184  A    between atoms: _435  and  _436
REMARK  185  A    between atoms: _439  and  _441
REMARK  186  A    between atoms: _441  and  _442
REMARK  187  A    between atoms: _441  and  _444
REMARK  188  A    between atoms: _444  and  _445
REMARK  189  A    between atoms: _445  and  _446
REMARK  190  A    between atoms: _448  and  _450
REMARK  191  A    between atoms: _450  and  _451
REMARK  192  A    between atoms: _450  and  _453
REMARK  193  A    between atoms: _453  and  _454
REMARK  194  A    between atoms: _458  and  _459
REMARK  195  A    between atoms: _464  and  _466
REMARK  196  A    between atoms: _466  and  _467
REMARK  197  A    between atoms: _466  and  _469
REMARK  198  A    between atoms: _469  and  _470
REMARK  199  A    between atoms: _473  and  _475
REMARK  200  A    between atoms: _475  and  _476
REMARK  201  A    between atoms: _475  and  _478
REMARK  202  A    between atoms: _478  and  _479
REMARK  203  A    between atoms: _484  and  _486
REMARK  204  A    between atoms: _486  and  _487
REMARK  205  A    between atoms: _486  and  _489
REMARK  206  A    between atoms: _489  and  _490
REMARK  207  A    between atoms: _493  and  _495
REMARK  208  A    between atoms: _495  and  _496
REMARK  209  A    between atoms: _495  and  _498
REMARK  210  A    between atoms: _498  and  _499
REMARK  211  A    between atoms: _505  and  _507
REMARK  212  A    between atoms: _507  and  _508
REMARK  213  A    between atoms: _510  and  _512
REMARK  214  A    between atoms: _512  and  _513
REMARK  215  A    between atoms: _512  and  _515
REMARK  216  A    between atoms: _515  and  _516
REMARK  217  A    between atoms: _516  and  _517
REMARK  218  A    between atoms: _517  and  _518
REMARK  219  A    between atoms: _527  and  _529
REMARK  220  A    between atoms: _529  and  _530
REMARK  221  A    between atoms: _529  and  _532
REMARK  222  A    between atoms: _532  and  _533
REMARK                            x       y       z     vdW  Elec       q    Type
REMARK                         _______ _______ _______ _____ _____    ______ ____
ROOT
ATOM      1  CA  MET A   1      34.802  13.615  19.960  0.00  0.00    +0.134 C 
ENDROOT
BRANCH   1   2
ATOM      2  N   MET A   1      35.137  12.696  18.880  0.00  0.00    -0.239 NA
ATOM      3  H   MET A   1      34.394  12.094  18.470  0.00  0.00    +0.142 HD
ENDBRANCH   1   2
BRANCH   1   4
ATOM      4  C   MET A   1      34.602  12.812  21.240  0.00  0.00    +0.224 C 
ATOM      5  O   MET A   1      33.974  11.738  21.248  0.00  0.00    -0.287 OA
ENDBRANCH   1   4
BRANCH   1   6
ATOM      6  CB  MET A   1      33.539  14.413  19.668  0.00  0.00    +0.037 C 
BRANCH   6   7
ATOM      7  CG  MET A   1      33.732  15.539  18.667  0.00  0.00    +0.059 C 
BRANCH   7   8
ATOM      8  SD  MET A   1      32.117  16.180  18.186  0.00  0.00    -0.139 S 
ATOM      9  CE  MET A   1      32.463  16.914  16.587  0.00  0.00    +0.069 C 
ENDBRANCH   7   8
ENDBRANCH   6   7
ENDBRANCH   1   6
TORSDOF 5
REMARK  Name = ../refined-set-2016/3s45/3s45_pocket.pdb
REMARK  222 active torsions:
REMARK  status: ('A' for Active; 'I' for Inactive)
REMARK    1  A    between atoms: _1  and  _3
REMARK    2  A    between atoms: _3  and  _4
REMARK    3  A    between atoms: _3  and  _6
REMARK    4  A    between atoms: _6  and  _7
REMARK    5  A    between atoms: _7  and  _8
REMARK    6  A    between atoms: _8  and  _9
REMARK    7  A    between atoms: _18  and  _20
REMARK    8  A    between atoms: _20  and  _21
REMARK    9  A    between atoms: _20  and  _23
REMARK   10  A    between atoms: _23  and  _24
REMARK   11  A    between atoms: _27  and  _29
REMARK   12  A    between atoms: _29  and  _30
REMARK   13  A    between atoms: _29  and  _32
REMARK   14  A    between atoms: _32  and  _33
REMARK   15  A    between atoms: _36  and  _38
REMARK   16  A    between atoms: _38  and  _39
REMARK   17  A    between atoms: _38  and  _41
REMARK   18  A    between atoms: _41  and  _42
REMARK   19  A    between atoms: _45  and  _47
REMARK   20  A    between atoms: _47  and  _48
REMARK   21  A    between atoms: _47  and  _50
REMARK   22  A    between atoms: _50  and  _51
REMARK   23  A    between atoms: _54  and  _56
REMARK   24  A    between atoms: _56  and  _57
REMARK   25  A    between atoms: _59  and  _61
REMARK   26  A    between atoms: _61  and  _62
REMARK   27  A    between atoms: _65  and  _67
REMARK   28  A    between atoms: _67  and  _68
REMARK   29  A    between atoms: _67  and  _70
REMARK   30  A    between atoms: _70  and  _71
REMARK   31  A    between atoms: _74  and  _76
REMARK   32  A    between atoms: _76  and  _77
REMARK   33  A    between atoms: _76  and  _79
REMARK   34  A    between atoms: _79  and  _80
REMARK   35  A    between atoms: _83  and  _85
REMARK   36  A    between atoms: _85  and  _86
REMARK   37  A    between atoms: _85  and  _88
REMARK   38  A    between atoms: _88  and  _89
REMARK   39  A    between atoms: _91  and  _93
REMARK   40  A    between atoms: _93  and  _94
REMARK   41  A    between atoms: _93  and  _96
REMARK   42  A    between atoms: _96  and  _97
REMARK   43  A    between atoms: _100  and  _102
REMARK   44  A    between atoms: _102  and  _103
REMARK   45  A    between atoms: _102  and  _105
REMARK   46  A    between atoms: _105  and  _106
REMARK   47  A    between atoms: _106  and  _107
REMARK   48  A    between atoms: _107  and  _108
REMARK   49  A    between atoms: _108  and  _109
REMARK   50  A    between atoms: _113  and  _115
REMARK   51  A    between atoms: _115  and  _116
REMARK   52  A    between atoms: _115  and  _118
REMARK   53  A    between atoms: _118  and  _119
REMARK   54  A    between atoms: _122  and  _124
REMARK   55  A    between atoms: _124  and  _125
REMARK   56  A    between atoms: _124  and  _127
REMARK   57  A    between atoms: _130  and  _132
REMARK   58  A    between atoms: _132  and  _133
REMARK   59  A    between atoms: _135  and  _137
REMARK   60  A    between atoms: _137  and  _138
REMARK   61  A    between atoms: _140  and  _142
REMARK   62  A    between atoms: _142  and  _143
REMARK   63  A    between atoms: _142  and  _145
REMARK   64  A    between atoms: _145  and  _146
REMARK   65  A    between atoms: _149  and  _151
REMARK   66  A    between atoms: _151  and  _152
REMARK   67  A    between atoms: _154  and  _156
REMARK   68  A    between atoms: _156  and  _157
REMARK   69  A    between atoms: _159  and  _161
REMARK   70  A    between atoms: _161  and  _162
REMARK   71  A    between atoms: _161  and  _164
REMARK   72  A    between atoms: _164  and  _165
REMARK   73  A    between atoms: _168  and  _170
REMARK   74  A    between atoms: _170  and  _171
REMARK   75  A    between atoms: _170  and  _173
REMARK   76  A    between atoms: _173  and  _174
REMARK   77  A    between atoms: _177  and  _179
REMARK   78  A    between atoms: _179  and  _180
REMARK   79  A    between atoms: _179  and  _182
REMARK   80  A    between atoms: _182  and  _183
REMARK   81  A    between atoms: _183  and  _184
REMARK   82  A    between atoms: _186  and  _188
REMARK   83  A    between atoms: _188  and  _189
REMARK   84  A    between atoms: _188  and  _191
REMARK   85  A    between atoms: _191  and  _192
REMARK   86  A    between atoms: _196  and  _197
REMARK   87  A    between atoms: _202  and  _204
REMARK   88  A    between atoms: _204  and  _205
REMARK   89  A    between atoms: _204  and  _207
REMARK   90  A    between atoms: _207  and  _208
REMARK   91  A    between atoms: _211  and  _213
REMARK   92  A    between atoms: _213  and  _214
REMARK   93  A    between atoms: _213  and  _216
REMARK   94  A    between atoms: _216  and  _217
REMARK   95  A    between atoms: _222  and  _224
REMARK   96  A    between atoms: _224  and  _225
REMARK   97  A    between atoms: _224  and  _227
REMARK   98  A    between atoms: _227  and  _228
REMARK   99  A    between atoms: _231  and  _233
REMARK  100  A    between atoms: _233  and  _234
REMARK  101  A    between atoms: _233  and  _236
REMARK  102  A    between atoms: _236  and  _237
REMARK  103  A    between atoms: _243  and  _245
REMARK  104  A    between atoms: _245  and  _246
REMARK  105  A    between atoms: _248  and  _250
REMARK  106  A    between atoms: _250  and  _251
REMARK  107  A    between atoms: _250  and  _253
REMARK  108  A    between atoms: _253  and  _254
REMARK  109  A    between atoms: _254  and  _255
REMARK  110  A    between atoms: _255  and  _256
REMARK  111  A    between atoms: _265  and  _267
REMARK  112  A    between atoms: _267  and  _268
REMARK  113  A    between atoms: _267  and  _270
REMARK  114  A    between atoms: _270  and  _271
REMARK  115  A    between atoms: _276  and  _278
REMARK  116  A    between atoms: _278  and  _279
REMARK  117  A    between atoms: _278  and  _281
REMARK  118  A    between atoms: _281  and  _282
REMARK  119  A    between atoms: _282  and  _283
REMARK  120  A    between atoms: _283  and  _284
REMARK  121  A    between atoms: _293  and  _295
REMARK  122  A    between atoms: _295  and  _296
REMARK  123  A    between atoms: _295  and  _298
REMARK  124  A    between atoms: _298  and  _299
REMARK  125  A    between atoms: _302  and  _304
REMARK  126  A    between atoms: _304  and  _305
REMARK  127  A    between atoms: _304  and  _307
REMARK  128  A    between atoms: _307  and  _308
REMARK  129  A    between atoms: _311  and  _313
REMARK  130  A    between atoms: _313  and  _314
REMARK  131  A    between atoms: _313  and  _316
REMARK  132  A    between atoms: _316  and  _317
REMARK  133  A    between atoms: _320  and  _322
REMARK  134  A    between atoms: _322  and  _323
REMARK  135  A    between atoms: _322  and  _325
REMARK  136  A    between atoms: _325  and  _326
REMARK  137  A    between atoms: _329  and  _331
REMARK  138  A    between atoms: _331  and  _332
REMARK  139  A    between atoms: _334  and  _336
REMARK  140  A    between atoms: _336  and  _337
REMARK  141  A    between atoms: _340  and  _342
REMARK  142  A    between atoms: _342  and  _343
REMARK  143  A    between atoms: _342  and  _345
REMARK  144  A    between atoms: _345  and  _346
REMARK  145  A    between atoms: _349  and  _351
REMARK  146  A    between atoms: _351  and  _352
REMARK  147  A    between atoms: _351  and  _354
REMARK  148  A    between atoms: _354  and  _355
REMARK  149  A    between atoms: _355  and  _357
REMARK  150  A    between atoms: _358  and  _360
REMARK  151  A    between atoms: _360  and  _361
REMARK  152  A    between atoms: _360  and  _363
REMARK  153  A    between atoms: _363  and  _364
REMARK  154  A    between atoms: _366  and  _368
REMARK  155  A    between atoms: _368  and  _369
REMARK  156  A    between atoms: _368  and  _371
REMARK  157  A    between atoms: _371  and  _372
REMARK  158  A    between atoms: _375  and  _377
REMARK  159  A    between atoms: _377  and  _378
REMARK  160  A    between atoms: _377  and  _380
REMARK  161  A    between atoms: _380  and  _381
REMARK  162  A    between atoms: _384  and  _386
REMARK  163  A    between atoms: _386  and  _387
REMARK  164  A    between atoms: _386  and  _389
REMARK  165  A    between atoms: _392  and  _394
REMARK  166  A    between atoms: _394  and  _395
REMARK  167  A    between atoms: _397  and  _399
REMARK  168  A    between atoms: _399  and  _400
REMARK  169  A    between atoms: _402  and  _404
REMARK  170  A    between atoms: _404  and  _405
REMARK  171  A    between atoms: _404  and  _407
REMARK  172  A    between atoms: _407  and  _408
REMARK  173  A    between atoms: _411  and  _413
REMARK  174  A    between atoms: _413  and  _414
REMARK  175  A    between atoms: _416  and  _418
REMARK  176  A    between atoms: _418  and  _419
REMARK  177  A    between atoms: _421  and  _423
REMARK  178  A    between atoms: _423  and  _424
REMARK  179  A    between atoms: _423  and  _426
REMARK  180  A    between atoms: _426  and  _427
REMARK  181  A    between atoms: _430  and  _432
REMARK  182  A    between atoms: _432  and  _433
REMARK  183  A    between atoms: _432  and  _435
REMARK  184  A    between atoms: _435  and  _436
REMARK  185  A    between atoms: _439  and  _441
REMARK  186  A    between atoms: _441  and  _442
REMARK  187  A    between atoms: _441  and  _444
REMARK  188  A    between atoms: _444  and  _445
REMARK  189  A    between atoms: _445  and  _446
REMARK  190  A    between atoms: _448  and  _450
REMARK  191  A    between atoms: _450  and  _451
REMARK  192  A    between atoms: _450  and  _453
REMARK  193  A    between atoms: _453  and  _454
REMARK  194  A    between atoms: _458  and  _459
REMARK  195  A    between atoms: _464  and  _466
REMARK  196  A    between atoms: _466  and  _467
REMARK  197  A    between atoms: _466  and  _469
REMARK  198  A    between atoms: _469  and  _470
REMARK  199  A    between atoms: _473  and  _475
REMARK  200  A    between atoms: _475  and  _476
REMARK  201  A    between atoms: _475  and  _478
REMARK  202  A    between atoms: _478  and  _479
REMARK  203  A    between atoms: _484  and  _486
REMARK  204  A    between atoms: _486  and  _487
REMARK  205  A    between atoms: _486  and  _489
REMARK  206  A    between atoms: _489  and  _490
REMARK  207  A    between atoms: _493  and  _495
REMARK  208  A    between atoms: _495  and  _496
REMARK  209  A    between atoms: _495  and  _498
REMARK  210  A    between atoms: _498  and  _499
REMARK  211  A    between atoms: _505  and  _507
REMARK  212  A    between atoms: _507  and  _508
REMARK  213  A    between atoms: _510  and  _512
REMARK  214  A    between atoms: _512  and  _513
REMARK  215  A    between atoms: _512  and  _515
REMARK  216  A    between atoms: _515  and  _516
REMARK  217  A    between atoms: _516  and  _517
REMARK  218  A    between atoms: _517  and  _518
REMARK  219  A    between atoms: _527  and  _529
REMARK  220  A    between atoms: _529  and  _530
REMARK  221  A    between atoms: _529  and  _532
REMARK  222  A    between atoms: _532  and  _533
REMARK                            x       y       z     vdW  Elec       q    Type
REMARK                         _______ _______ _______ _____ _____    ______ ____
ROOT
ATOM      1  C   ILE A   5      29.516   6.502  17.289  0.00  0.00    +0.241 C 
ATOM      2  O   ILE A   5      30.313   7.467  17.437  0.00  0.00    -0.273 OA
ATOM      3  N   PHE A   6      29.535   5.695  16.225  0.00  0.00    -0.297 N 
ATOM      4  H   PHE A   6      28.960   4.829  16.204  0.00  0.00    +0.150 HD
ENDROOT
BRANCH   3   5
ATOM      5  CA  PHE A   6      30.383   6.058  15.090  0.00  0.00    +0.153 C 
BRANCH   5   6
ATOM      6  C   PHE A   6      29.433   6.639  14.062  0.00  0.00    +0.241 C 
ATOM      7  N   GLY A   7      29.537   7.925  13.772  0.00  0.00    -0.295 N 
ATOM      8  H   GLY A   7      30.312   8.478  14.190  0.00  0.00    +0.150 HD
ATOM      9  O   PHE A   6      28.577   5.877  13.584  0.00  0.00    -0.273 OA
BRANCH   7  10
ATOM     10  CA  GLY A   7      28.591   8.588  12.879  0.00  0.00    +0.176 C 
BRANCH  10  11
ATOM     11  C   GLY A   7      29.116   8.638  11.453  0.00  0.00    +0.243 C 
ATOM     12  O   GLY A   7      30.047   7.925  11.092  0.00  0.00    -0.273 OA
ATOM     13  N   ARG A   8      28.503   9.482  10.646  0.00  0.00    -0.297 N 
ATOM     14  H   ARG A   8      27.840  10.183  11.034  0.00  0.00    +0.150 HD
BRANCH  13  15
ATOM     15  CA  ARG A   8      28.754   9.434   9.208  0.00  0.00    +0.149 C 
BRANCH  15  16
ATOM     16  C   ARG A   8      30.196   9.765   8.875  0.00  0.00    +0.241 C 
ATOM     17  N   ASN A   9      30.886  10.553   9.709  0.00  0.00    -0.298 N 
ATOM     18  H   ASN A   9      30.464  10.960  10.568  0.00  0.00    +0.150 HD
ATOM     19  O   ARG A   8      30.686   9.298   7.824  0.00  0.00    -0.273 OA
BRANCH  17  20
ATOM     20  CA  ASN A   9      32.286  10.802   9.324  0.00  0.00    +0.146 C 
BRANCH  20  21
ATOM     21  C   ASN A   9      33.076   9.488   9.261  0.00  0.00    +0.227 C 
ATOM     22  O   ASN A   9      33.908   9.339   8.354  0.00  0.00    -0.286 OA
ENDBRANCH  20  21
BRANCH  20  23
ATOM     23  CB  ASN A   9      32.989  11.809  10.247  0.00  0.00    +0.112 C 
BRANCH  23  24
ATOM     24  CG  ASN A   9      33.221  11.248  11.645  0.00  0.00    +0.222 C 
ATOM     25  OD1 ASN A   9      32.267  10.771  12.269  0.00  0.00    -0.275 OA
ATOM     26  ND2 ASN A   9      34.470  11.322  12.090  0.00  0.00    -0.329 N 
ATOM     27 HD21 ASN A   9      34.707  10.960  13.036  0.00  0.00    +0.145 HD
ATOM     28 HD22 ASN A   9      35.211  11.742  11.493  0.00  0.00    +0.145 HD
ENDBRANCH  23  24
ENDBRANCH  20  23
ENDBRANCH  17  20
ENDBRANCH  15  16
BRANCH  15  29
ATOM     29  CB  ARG A   8      27.792  10.382   8.463  0.00  0.00    +0.033 C 
BRANCH  29  30
ATOM     30  CG  ARG A   8      26.357   9.881   8.491  0.00  0.00    +0.045 C 
BRANCH  30  31
ATOM     31  CD  ARG A   8      25.367  10.705   7.658  0.00  0.00    +0.174 C 
BRANCH  31  32
ATOM     32  NE  ARG A   8      25.401  12.105   8.081  0.00  0.00    -0.265 N 
ATOM     33  HE  ARG A   8      24.840  12.335   8.926  0.00  0.00    +0.259 HD
ATOM     34  CZ  ARG A   8      26.050  13.116   7.531  0.00  0.00    +0.342 C 
ATOM     35  NH2 ARG A   8      25.964  14.326   8.086  0.00  0.00    -0.292 N 
ATOM     36 HH21 ARG A   8      25.391  14.466   8.942  0.00  0.00    +0.255 HD
ATOM     37 HH22 ARG A   8      26.470  15.130   7.662  0.00  0.00    +0.255 HD
ATOM     38  NH1 ARG A   8      26.771  12.941   6.441  0.00  0.00    -0.292 N 
ATOM     39 HH11 ARG A   8      27.277  13.745   6.018  0.00  0.00    +0.255 HD
ATOM     40 HH12 ARG A   8      26.834  11.999   6.005  0.00  0.00    +0.255 HD
ENDBRANCH  31  32
ENDBRANCH  30  31
ENDBRANCH  29  30
ENDBRANCH  15  29
ENDBRANCH  13  15
ENDBRANCH  10  11
ENDBRANCH   7  10
ENDBRANCH   5   6
BRANCH   5  41
ATOM     41  CB  PHE A   6      31.100   4.846  14.516  0.00  0.00    +0.055 C 
BRANCH  41  42
ATOM     42  CG  PHE A   6      32.382   4.467  15.207  0.00  0.00    -0.020 A 
ATOM     43  CD2 PHE A   6      32.892   5.199  16.261  0.00  0.00    -0.004 A 
ATOM     44  CE2 PHE A   6      34.069   4.845  16.903  0.00  0.00    -0.000 A 
ATOM     45  CZ  PHE A   6      34.775   3.750  16.468  0.00  0.00    -0.000 A 
ATOM     46  CE1 PHE A   6      34.277   3.014  15.399  0.00  0.00    -0.000 A 
ATOM     47  CD1 PHE A   6      33.090   3.352  14.764  0.00  0.00    -0.004 A 
ENDBRANCH  41  42
ENDBRANCH   5  41
ENDBRANCH   3   5
BRANCH   1  48
ATOM     48  CA  ILE A   5      28.447   6.200  18.339  0.00  0.00    +0.149 C 
BRANCH  48  51
ATOM     49  C   ASN A   4      28.776   5.245  20.508  0.00  0.00    +0.241 C 
ATOM     50  O   ASN A   4      28.207   4.195  20.151  0.00  0.00    -0.273 OA
ATOM     51  N   ILE A   5      29.008   6.281  19.699  0.00  0.00    -0.297 N 
ATOM     52  H   ILE A   5      29.558   7.106  20.013  0.00  0.00    +0.150 HD
BRANCH  49  53
ATOM     53  CA  ASN A   4      29.246   5.387  21.951  0.00  0.00    +0.158 C 
BRANCH  53  55
ATOM     54  C   ILE A   3      27.084   5.681  23.027  0.00  0.00    +0.241 C 
ATOM     55  N   ASN A   4      28.179   4.952  22.863  0.00  0.00    -0.297 N 
ATOM     56  H   ASN A   4      28.284   4.060  23.387  0.00  0.00    +0.150 HD
ATOM     57  O   ILE A   3      26.933   6.784  22.479  0.00  0.00    -0.273 OA
BRANCH  54  58
ATOM     58  CA  ILE A   3      25.958   5.180  23.923  0.00  0.00    +0.149 C 
BRANCH  58  61
ATOM     59  C   PRO A   2      25.345   6.147  26.102  0.00  0.00    +0.241 C 
ATOM     60  O   PRO A   2      25.444   5.064  26.672  0.00  0.00    -0.273 OA
ATOM     61  N   ILE A   3      25.592   6.276  24.817  0.00  0.00    -0.297 N 
ATOM     62  H   ILE A   3      25.522   7.229  24.407  0.00  0.00    +0.150 HD
BRANCH  59  66
ATOM     63  C   THR A   1      26.560   9.010  26.082  0.00  0.00    +0.244 C 
ATOM     64  O   THR A   1      27.453   8.337  26.603  0.00  0.00    -0.273 OA
ATOM     65  N   PRO A   2      25.290   8.626  26.160  0.00  0.00    -0.272 N 
ATOM     66  CA  PRO A   2      24.950   7.396  26.884  0.00  0.00    +0.152 C 
ATOM     67  CB  PRO A   2      23.427   7.506  27.052  0.00  0.00    +0.031 C 
ATOM     68  CG  PRO A   2      22.969   8.340  25.894  0.00  0.00    +0.024 C 
ATOM     69  CD  PRO A   2      24.099   9.296  25.590  0.00  0.00    +0.094 C 
BRANCH  63  70
ATOM     70  CA  THR A   1      26.924  10.300  25.360  0.00  0.00    +0.172 C 
BRANCH  70  71
ATOM     71  N   THR A   1      28.009  10.983  26.078  0.00  0.00    -0.236 NA
ATOM     72  H   THR A   1      28.976  10.605  26.018  0.00  0.00    +0.142 HD
ENDBRANCH  70  71
BRANCH  70  73
ATOM     73  CB  THR A   1      27.341  10.022  23.905  0.00  0.00    +0.135 C 
ATOM     74  CG2 THR A   1      28.613   9.181  23.844  0.00  0.00    +0.034 C 
BRANCH  73  75
ATOM     75  OG1 THR A   1      26.322   9.282  23.237  0.00  0.00    -0.383 OA
ATOM     76  HG1 THR A   1      26.180   8.421  23.705  0.00  0.00    +0.210 HD
ENDBRANCH  73  75
ENDBRANCH  70  73
ENDBRANCH  63  70
ENDBRANCH  59  66
ENDBRANCH  58  61
BRANCH  58  77
ATOM     77  CB  ILE A   3      24.763   4.736  23.046  0.00  0.00    +0.027 C 
ATOM     78  CG2 ILE A   3      25.210   3.596  22.149  0.00  0.00    +0.002 C 
BRANCH  77  79
ATOM     79  CG1 ILE A   3      23.526   4.372  23.852  0.00  0.00    +0.002 C 
ATOM     80  CD1 ILE A   3      22.342   3.744  23.151  0.00  0.00    +0.000 C 
ENDBRANCH  77  79
ENDBRANCH  58  77
ENDBRANCH  54  58
ENDBRANCH  53  55
BRANCH  53  81
ATOM     81  CB  ASN A   4      30.491   4.542  22.145  0.00  0.00    +0.114 C 
BRANCH  81  82
ATOM     82  CG  ASN A   4      31.067   4.684  23.551  0.00  0.00    +0.222 C 
ATOM     83  OD1 ASN A   4      30.935   5.722  24.199  0.00  0.00    -0.275 OA
ATOM     84  ND2 ASN A   4      31.700   3.594  23.996  0.00  0.00    -0.329 N 
ATOM     85 HD21 ASN A   4      32.120   3.589  24.947  0.00  0.00    +0.145 HD
ATOM     86 HD22 ASN A   4      31.772   2.751  23.391  0.00  0.00    +0.145 HD
ENDBRANCH  81  82
ENDBRANCH  53  81
ENDBRANCH  49  53
ENDBRANCH  48  51
BRANCH  48  87
ATOM     87  CB  ILE A   5      27.257   7.146  18.137  0.00  0.00    +0.027 C 
ATOM     88  CG2 ILE A   5      25.967   6.679  18.827  0.00  0.00    +0.002 C 
BRANCH  87  89
ATOM     89  CG1 ILE A   5      27.495   8.596  18.573  0.00  0.00    +0.002 C 
ATOM     90  CD1 ILE A   5      26.320   9.543  18.341  0.00  0.00    +0.000 C 
ENDBRANCH  87  89
ENDBRANCH  48  87
ENDBRANCH   1  48
TORSDOF 33
REMARK  Name = ../refined-set-2016/3s45/3s45_pocket.pdb
REMARK  222 active torsions:
REMARK  status: ('A' for Active; 'I' for Inactive)
REMARK    1  A    between atoms: _1  and  _3
REMARK    2  A    between atoms: _3  and  _4
REMARK    3  A    between atoms: _3  and  _6
REMARK    4  A    between atoms: _6  and  _7
REMARK    5  A    between atoms: _7  and  _8
REMARK    6  A    between atoms: _8  and  _9
REMARK    7  A    between atoms: _18  and  _20
REMARK    8  A    between atoms: _20  and  _21
REMARK    9  A    between atoms: _20  and  _23
REMARK   10  A    between atoms: _23  and  _24
REMARK   11  A    between atoms: _27  and  _29
REMARK   12  A    between atoms: _29  and  _30
REMARK   13  A    between atoms: _29  and  _32
REMARK   14  A    between atoms: _32  and  _33
REMARK   15  A    between atoms: _36  and  _38
REMARK   16  A    between atoms: _38  and  _39
REMARK   17  A    between atoms: _38  and  _41
REMARK   18  A    between atoms: _41  and  _42
REMARK   19  A    between atoms: _45  and  _47
REMARK   20  A    between atoms: _47  and  _48
REMARK   21  A    between atoms: _47  and  _50
REMARK   22  A    between atoms: _50  and  _51
REMARK   23  A    between atoms: _54  and  _56
REMARK   24  A    between atoms: _56  and  _57
REMARK   25  A    between atoms: _59  and  _61
REMARK   26  A    between atoms: _61  and  _62
REMARK   27  A    between atoms: _65  and  _67
REMARK   28  A    between atoms: _67  and  _68
REMARK   29  A    between atoms: _67  and  _70
REMARK   30  A    between atoms: _70  and  _71
REMARK   31  A    between atoms: _74  and  _76
REMARK   32  A    between atoms: _76  and  _77
REMARK   33  A    between atoms: _76  and  _79
REMARK   34  A    between atoms: _79  and  _80
REMARK   35  A    between atoms: _83  and  _85
REMARK   36  A    between atoms: _85  and  _86
REMARK   37  A    between atoms: _85  and  _88
REMARK   38  A    between atoms: _88  and  _89
REMARK   39  A    between atoms: _91  and  _93
REMARK   40  A    between atoms: _93  and  _94
REMARK   41  A    between atoms: _93  and  _96
REMARK   42  A    between atoms: _96  and  _97
REMARK   43  A    between atoms: _100  and  _102
REMARK   44  A    between atoms: _102  and  _103
REMARK   45  A    between atoms: _102  and  _105
REMARK   46  A    between atoms: _105  and  _106
REMARK   47  A    between atoms: _106  and  _107
REMARK   48  A    between atoms: _107  and  _108
REMARK   49  A    between atoms: _108  and  _109
REMARK   50  A    between atoms: _113  and  _115
REMARK   51  A    between atoms: _115  and  _116
REMARK   52  A    between atoms: _115  and  _118
REMARK   53  A    between atoms: _118  and  _119
REMARK   54  A    between atoms: _122  and  _124
REMARK   55  A    between atoms: _124  and  _125
REMARK   56  A    between atoms: _124  and  _127
REMARK   57  A    between atoms: _130  and  _132
REMARK   58  A    between atoms: _132  and  _133
REMARK   59  A    between atoms: _135  and  _137
REMARK   60  A    between atoms: _137  and  _138
REMARK   61  A    between atoms: _140  and  _142
REMARK   62  A    between atoms: _142  and  _143
REMARK   63  A    between atoms: _142  and  _145
REMARK   64  A    between atoms: _145  and  _146
REMARK   65  A    between atoms: _149  and  _151
REMARK   66  A    between atoms: _151  and  _152
REMARK   67  A    between atoms: _154  and  _156
REMARK   68  A    between atoms: _156  and  _157
REMARK   69  A    between atoms: _159  and  _161
REMARK   70  A    between atoms: _161  and  _162
REMARK   71  A    between atoms: _161  and  _164
REMARK   72  A    between atoms: _164  and  _165
REMARK   73  A    between atoms: _168  and  _170
REMARK   74  A    between atoms: _170  and  _171
REMARK   75  A    between atoms: _170  and  _173
REMARK   76  A    between atoms: _173  and  _174
REMARK   77  A    between atoms: _177  and  _179
REMARK   78  A    between atoms: _179  and  _180
REMARK   79  A    between atoms: _179  and  _182
REMARK   80  A    between atoms: _182  and  _183
REMARK   81  A    between atoms: _183  and  _184
REMARK   82  A    between atoms: _186  and  _188
REMARK   83  A    between atoms: _188  and  _189
REMARK   84  A    between atoms: _188  and  _191
REMARK   85  A    between atoms: _191  and  _192
REMARK   86  A    between atoms: _196  and  _197
REMARK   87  A    between atoms: _202  and  _204
REMARK   88  A    between atoms: _204  and  _205
REMARK   89  A    between atoms: _204  and  _207
REMARK   90  A    between atoms: _207  and  _208
REMARK   91  A    between atoms: _211  and  _213
REMARK   92  A    between atoms: _213  and  _214
REMARK   93  A    between atoms: _213  and  _216
REMARK   94  A    between atoms: _216  and  _217
REMARK   95  A    between atoms: _222  and  _224
REMARK   96  A    between atoms: _224  and  _225
REMARK   97  A    between atoms: _224  and  _227
REMARK   98  A    between atoms: _227  and  _228
REMARK   99  A    between atoms: _231  and  _233
REMARK  100  A    between atoms: _233  and  _234
REMARK  101  A    between atoms: _233  and  _236
REMARK  102  A    between atoms: _236  and  _237
REMARK  103  A    between atoms: _243  and  _245
REMARK  104  A    between atoms: _245  and  _246
REMARK  105  A    between atoms: _248  and  _250
REMARK  106  A    between atoms: _250  and  _251
REMARK  107  A    between atoms: _250  and  _253
REMARK  108  A    between atoms: _253  and  _254
REMARK  109  A    between atoms: _254  and  _255
REMARK  110  A    between atoms: _255  and  _256
REMARK  111  A    between atoms: _265  and  _267
REMARK  112  A    between atoms: _267  and  _268
REMARK  113  A    between atoms: _267  and  _270
REMARK  114  A    between atoms: _270  and  _271
REMARK  115  A    between atoms: _276  and  _278
REMARK  116  A    between atoms: _278  and  _279
REMARK  117  A    between atoms: _278  and  _281
REMARK  118  A    between atoms: _281  and  _282
REMARK  119  A    between atoms: _282  and  _283
REMARK  120  A    between atoms: _283  and  _284
REMARK  121  A    between atoms: _293  and  _295
REMARK  122  A    between atoms: _295  and  _296
REMARK  123  A    between atoms: _295  and  _298
REMARK  124  A    between atoms: _298  and  _299
REMARK  125  A    between atoms: _302  and  _304
REMARK  126  A    between atoms: _304  and  _305
REMARK  127  A    between atoms: _304  and  _307
REMARK  128  A    between atoms: _307  and  _308
REMARK  129  A    between atoms: _311  and  _313
REMARK  130  A    between atoms: _313  and  _314
REMARK  131  A    between atoms: _313  and  _316
REMARK  132  A    between atoms: _316  and  _317
REMARK  133  A    between atoms: _320  and  _322
REMARK  134  A    between atoms: _322  and  _323
REMARK  135  A    between atoms: _322  and  _325
REMARK  136  A    between atoms: _325  and  _326
REMARK  137  A    between atoms: _329  and  _331
REMARK  138  A    between atoms: _331  and  _332
REMARK  139  A    between atoms: _334  and  _336
REMARK  140  A    between atoms: _336  and  _337
REMARK  141  A    between atoms: _340  and  _342
REMARK  142  A    between atoms: _342  and  _343
REMARK  143  A    between atoms: _342  and  _345
REMARK  144  A    between atoms: _345  and  _346
REMARK  145  A    between atoms: _349  and  _351
REMARK  146  A    between atoms: _351  and  _352
REMARK  147  A    between atoms: _351  and  _354
REMARK  148  A    between atoms: _354  and  _355
REMARK  149  A    between atoms: _355  and  _357
REMARK  150  A    between atoms: _358  and  _360
REMARK  151  A    between atoms: _360  and  _361
REMARK  152  A    between atoms: _360  and  _363
REMARK  153  A    between atoms: _363  and  _364
REMARK  154  A    between atoms: _366  and  _368
REMARK  155  A    between atoms: _368  and  _369
REMARK  156  A    between atoms: _368  and  _371
REMARK  157  A    between atoms: _371  and  _372
REMARK  158  A    between atoms: _375  and  _377
REMARK  159  A    between atoms: _377  and  _378
REMARK  160  A    between atoms: _377  and  _380
REMARK  161  A    between atoms: _380  and  _381
REMARK  162  A    between atoms: _384  and  _386
REMARK  163  A    between atoms: _386  and  _387
REMARK  164  A    between atoms: _386  and  _389
REMARK  165  A    between atoms: _392  and  _394
REMARK  166  A    between atoms: _394  and  _395
REMARK  167  A    between atoms: _397  and  _399
REMARK  168  A    between atoms: _399  and  _400
REMARK  169  A    between atoms: _402  and  _404
REMARK  170  A    between atoms: _404  and  _405
REMARK  171  A    between atoms: _404  and  _407
REMARK  172  A    between atoms: _407  and  _408
REMARK  173  A    between atoms: _411  and  _413
REMARK  174  A    between atoms: _413  and  _414
REMARK  175  A    between atoms: _416  and  _418
REMARK  176  A    between atoms: _418  and  _419
REMARK  177  A    between atoms: _421  and  _423
REMARK  178  A    between atoms: _423  and  _424
REMARK  179  A    between atoms: _423  and  _426
REMARK  180  A    between atoms: _426  and  _427
REMARK  181  A    between atoms: _430  and  _432
REMARK  182  A    between atoms: _432  and  _433
REMARK  183  A    between atoms: _432  and  _435
REMARK  184  A    between atoms: _435  and  _436
REMARK  185  A    between atoms: _439  and  _441
REMARK  186  A    between atoms: _441  and  _442
REMARK  187  A    between atoms: _441  and  _444
REMARK  188  A    between atoms: _444  and  _445
REMARK  189  A    between atoms: _445  and  _446
REMARK  190  A    between atoms: _448  and  _450
REMARK  191  A    between atoms: _450  and  _451
REMARK  192  A    between atoms: _450  and  _453
REMARK  193  A    between atoms: _453  and  _454
REMARK  194  A    between atoms: _458  and  _459
REMARK  195  A    between atoms: _464  and  _466
REMARK  196  A    between atoms: _466  and  _467
REMARK  197  A    between atoms: _466  and  _469
REMARK  198  A    between atoms: _469  and  _470
REMARK  199  A    between atoms: _473  and  _475
REMARK  200  A    between atoms: _475  and  _476
REMARK  201  A    between atoms: _475  and  _478
REMARK  202  A    between atoms: _478  and  _479
REMARK  203  A    between atoms: _484  and  _486
REMARK  204  A    between atoms: _486  and  _487
REMARK  205  A    between atoms: _486  and  _489
REMARK  206  A    between atoms: _489  and  _490
REMARK  207  A    between atoms: _493  and  _495
REMARK  208  A    between atoms: _495  and  _496
REMARK  209  A    between atoms: _495  and  _498
REMARK  210  A    between atoms: _498  and  _499
REMARK  211  A    between atoms: _505  and  _507
REMARK  212  A    between atoms: _507  and  _508
REMARK  213  A    between atoms: _510  and  _512
REMARK  214  A    between atoms: _512  and  _513
REMARK  215  A    between atoms: _512  and  _515
REMARK  216  A    between atoms: _515  and  _516
REMARK  217  A    between atoms: _516  and  _517
REMARK  218  A    between atoms: _517  and  _518
REMARK  219  A    between atoms: _527  and  _529
REMARK  220  A    between atoms: _529  and  _530
REMARK  221  A    between atoms: _529  and  _532
REMARK  222  A    between atoms: _532  and  _533
REMARK                            x       y       z     vdW  Elec       q    Type
REMARK                         _______ _______ _______ _____ _____    ______ ____
ROOT
ATOM      1  O   HOH     1      20.524  10.341  27.964  0.00  0.00    +0.000 OA
ENDROOT
TORSDOF 0
REMARK  Name = ../refined-set-2016/3s45/3s45_pocket.pdb
REMARK  222 active torsions:
REMARK  status: ('A' for Active; 'I' for Inactive)
REMARK    1  A    between atoms: _1  and  _3
REMARK    2  A    between atoms: _3  and  _4
REMARK    3  A    between atoms: _3  and  _6
REMARK    4  A    between atoms: _6  and  _7
REMARK    5  A    between atoms: _7  and  _8
REMARK    6  A    between atoms: _8  and  _9
REMARK    7  A    between atoms: _18  and  _20
REMARK    8  A    between atoms: _20  and  _21
REMARK    9  A    between atoms: _20  and  _23
REMARK   10  A    between atoms: _23  and  _24
REMARK   11  A    between atoms: _27  and  _29
REMARK   12  A    between atoms: _29  and  _30
REMARK   13  A    between atoms: _29  and  _32
REMARK   14  A    between atoms: _32  and  _33
REMARK   15  A    between atoms: _36  and  _38
REMARK   16  A    between atoms: _38  and  _39
REMARK   17  A    between atoms: _38  and  _41
REMARK   18  A    between atoms: _41  and  _42
REMARK   19  A    between atoms: _45  and  _47
REMARK   20  A    between atoms: _47  and  _48
REMARK   21  A    between atoms: _47  and  _50
REMARK   22  A    between atoms: _50  and  _51
REMARK   23  A    between atoms: _54  and  _56
REMARK   24  A    between atoms: _56  and  _57
REMARK   25  A    between atoms: _59  and  _61
REMARK   26  A    between atoms: _61  and  _62
REMARK   27  A    between atoms: _65  and  _67
REMARK   28  A    between atoms: _67  and  _68
REMARK   29  A    between atoms: _67  and  _70
REMARK   30  A    between atoms: _70  and  _71
REMARK   31  A    between atoms: _74  and  _76
REMARK   32  A    between atoms: _76  and  _77
REMARK   33  A    between atoms: _76  and  _79
REMARK   34  A    between atoms: _79  and  _80
REMARK   35  A    between atoms: _83  and  _85
REMARK   36  A    between atoms: _85  and  _86
REMARK   37  A    between atoms: _85  and  _88
REMARK   38  A    between atoms: _88  and  _89
REMARK   39  A    between atoms: _91  and  _93
REMARK   40  A    between atoms: _93  and  _94
REMARK   41  A    between atoms: _93  and  _96
REMARK   42  A    between atoms: _96  and  _97
REMARK   43  A    between atoms: _100  and  _102
REMARK   44  A    between atoms: _102  and  _103
REMARK   45  A    between atoms: _102  and  _105
REMARK   46  A    between atoms: _105  and  _106
REMARK   47  A    between atoms: _106  and  _107
REMARK   48  A    between atoms: _107  and  _108
REMARK   49  A    between atoms: _108  and  _109
REMARK   50  A    between atoms: _113  and  _115
REMARK   51  A    between atoms: _115  and  _116
REMARK   52  A    between atoms: _115  and  _118
REMARK   53  A    between atoms: _118  and  _119
REMARK   54  A    between atoms: _122  and  _124
REMARK   55  A    between atoms: _124  and  _125
REMARK   56  A    between atoms: _124  and  _127
REMARK   57  A    between atoms: _130  and  _132
REMARK   58  A    between atoms: _132  and  _133
REMARK   59  A    between atoms: _135  and  _137
REMARK   60  A    between atoms: _137  and  _138
REMARK   61  A    between atoms: _140  and  _142
REMARK   62  A    between atoms: _142  and  _143
REMARK   63  A    between atoms: _142  and  _145
REMARK   64  A    between atoms: _145  and  _146
REMARK   65  A    between atoms: _149  and  _151
REMARK   66  A    between atoms: _151  and  _152
REMARK   67  A    between atoms: _154  and  _156
REMARK   68  A    between atoms: _156  and  _157
REMARK   69  A    between atoms: _159  and  _161
REMARK   70  A    between atoms: _161  and  _162
REMARK   71  A    between atoms: _161  and  _164
REMARK   72  A    between atoms: _164  and  _165
REMARK   73  A    between atoms: _168  and  _170
REMARK   74  A    between atoms: _170  and  _171
REMARK   75  A    between atoms: _170  and  _173
REMARK   76  A    between atoms: _173  and  _174
REMARK   77  A    between atoms: _177  and  _179
REMARK   78  A    between atoms: _179  and  _180
REMARK   79  A    between atoms: _179  and  _182
REMARK   80  A    between atoms: _182  and  _183
REMARK   81  A    between atoms: _183  and  _184
REMARK   82  A    between atoms: _186  and  _188
REMARK   83  A    between atoms: _188  and  _189
REMARK   84  A    between atoms: _188  and  _191
REMARK   85  A    between atoms: _191  and  _192
REMARK   86  A    between atoms: _196  and  _197
REMARK   87  A    between atoms: _202  and  _204
REMARK   88  A    between atoms: _204  and  _205
REMARK   89  A    between atoms: _204  and  _207
REMARK   90  A    between atoms: _207  and  _208
REMARK   91  A    between atoms: _211  and  _213
REMARK   92  A    between atoms: _213  and  _214
REMARK   93  A    between atoms: _213  and  _216
REMARK   94  A    between atoms: _216  and  _217
REMARK   95  A    between atoms: _222  and  _224
REMARK   96  A    between atoms: _224  and  _225
REMARK   97  A    between atoms: _224  and  _227
REMARK   98  A    between atoms: _227  and  _228
REMARK   99  A    between atoms: _231  and  _233
REMARK  100  A    between atoms: _233  and  _234
REMARK  101  A    between atoms: _233  and  _236
REMARK  102  A    between atoms: _236  and  _237
REMARK  103  A    between atoms: _243  and  _245
REMARK  104  A    between atoms: _245  and  _246
REMARK  105  A    between atoms: _248  and  _250
REMARK  106  A    between atoms: _250  and  _251
REMARK  107  A    between atoms: _250  and  _253
REMARK  108  A    between atoms: _253  and  _254
REMARK  109  A    between atoms: _254  and  _255
REMARK  110  A    between atoms: _255  and  _256
REMARK  111  A    between atoms: _265  and  _267
REMARK  112  A    between atoms: _267  and  _268
REMARK  113  A    between atoms: _267  and  _270
REMARK  114  A    between atoms: _270  and  _271
REMARK  115  A    between atoms: _276  and  _278
REMARK  116  A    between atoms: _278  and  _279
REMARK  117  A    between atoms: _278  and  _281
REMARK  118  A    between atoms: _281  and  _282
REMARK  119  A    between atoms: _282  and  _283
REMARK  120  A    between atoms: _283  and  _284
REMARK  121  A    between atoms: _293  and  _295
REMARK  122  A    between atoms: _295  and  _296
REMARK  123  A    between atoms: _295  and  _298
REMARK  124  A    between atoms: _298  and  _299
REMARK  125  A    between atoms: _302  and  _304
REMARK  126  A    between atoms: _304  and  _305
REMARK  127  A    between atoms: _304  and  _307
REMARK  128  A    between atoms: _307  and  _308
REMARK  129  A    between atoms: _311  and  _313
REMARK  130  A    between atoms: _313  and  _314
REMARK  131  A    between atoms: _313  and  _316
REMARK  132  A    between atoms: _316  and  _317
REMARK  133  A    between atoms: _320  and  _322
REMARK  134  A    between atoms: _322  and  _323
REMARK  135  A    between atoms: _322  and  _325
REMARK  136  A    between atoms: _325  and  _326
REMARK  137  A    between atoms: _329  and  _331
REMARK  138  A    between atoms: _331  and  _332
REMARK  139  A    between atoms: _334  and  _336
REMARK  140  A    between atoms: _336  and  _337
REMARK  141  A    between atoms: _340  and  _342
REMARK  142  A    between atoms: _342  and  _343
REMARK  143  A    between atoms: _342  and  _345
REMARK  144  A    between atoms: _345  and  _346
REMARK  145  A    between atoms: _349  and  _351
REMARK  146  A    between atoms: _351  and  _352
REMARK  147  A    between atoms: _351  and  _354
REMARK  148  A    between atoms: _354  and  _355
REMARK  149  A    between atoms: _355  and  _357
REMARK  150  A    between atoms: _358  and  _360
REMARK  151  A    between atoms: _360  and  _361
REMARK  152  A    between atoms: _360  and  _363
REMARK  153  A    between atoms: _363  and  _364
REMARK  154  A    between atoms: _366  and  _368
REMARK  155  A    between atoms: _368  and  _369
REMARK  156  A    between atoms: _368  and  _371
REMARK  157  A    between atoms: _371  and  _372
REMARK  158  A    between atoms: _375  and  _377
REMARK  159  A    between atoms: _377  and  _378
REMARK  160  A    between atoms: _377  and  _380
REMARK  161  A    between atoms: _380  and  _381
REMARK  162  A    between atoms: _384  and  _386
REMARK  163  A    between atoms: _386  and  _387
REMARK  164  A    between atoms: _386  and  _389
REMARK  165  A    between atoms: _392  and  _394
REMARK  166  A    between atoms: _394  and  _395
REMARK  167  A    between atoms: _397  and  _399
REMARK  168  A    between atoms: _399  and  _400
REMARK  169  A    between atoms: _402  and  _404
REMARK  170  A    between atoms: _404  and  _405
REMARK  171  A    between atoms: _404  and  _407
REMARK  172  A    between atoms: _407  and  _408
REMARK  173  A    between atoms: _411  and  _413
REMARK  174  A    between atoms: _413  and  _414
REMARK  175  A    between atoms: _416  and  _418
REMARK  176  A    between atoms: _418  and  _419
REMARK  177  A    between atoms: _421  and  _423
REMARK  178  A    between atoms: _423  and  _424
REMARK  179  A    between atoms: _423  and  _426
REMARK  180  A    between atoms: _426  and  _427
REMARK  181  A    between atoms: _430  and  _432
REMARK  182  A    between atoms: _432  and  _433
REMARK  183  A    between atoms: _432  and  _435
REMARK  184  A    between atoms: _435  and  _436
REMARK  185  A    between atoms: _439  and  _441
REMARK  186  A    between atoms: _441  and  _442
REMARK  187  A    between atoms: _441  and  _444
REMARK  188  A    between atoms: _444  and  _445
REMARK  189  A    between atoms: _445  and  _446
REMARK  190  A    between atoms: _448  and  _450
REMARK  191  A    between atoms: _450  and  _451
REMARK  192  A    between atoms: _450  and  _453
REMARK  193  A    between atoms: _453  and  _454
REMARK  194  A    between atoms: _458  and  _459
REMARK  195  A    between atoms: _464  and  _466
REMARK  196  A    between atoms: _466  and  _467
REMARK  197  A    between atoms: _466  and  _469
REMARK  198  A    between atoms: _469  and  _470
REMARK  199  A    between atoms: _473  and  _475
REMARK  200  A    between atoms: _475  and  _476
REMARK  201  A    between atoms: _475  and  _478
REMARK  202  A    between atoms: _478  and  _479
REMARK  203  A    between atoms: _484  and  _486
REMARK  204  A    between atoms: _486  and  _487
REMARK  205  A    between atoms: _486  and  _489
REMARK  206  A    between atoms: _489  and  _490
REMARK  207  A    between atoms: _493  and  _495
REMARK  208  A    between atoms: _495  and  _496
REMARK  209  A    between atoms: _495  and  _498
REMARK  210  A    between atoms: _498  and  _499
REMARK  211  A    between atoms: _505  and  _507
REMARK  212  A    between atoms: _507  and  _508
REMARK  213  A    between atoms: _510  and  _512
REMARK  214  A    between atoms: _512  and  _513
REMARK  215  A    between atoms: _512  and  _515
REMARK  216  A    between atoms: _515  and  _516
REMARK  217  A    between atoms: _516  and  _517
REMARK  218  A    between atoms: _517  and  _518
REMARK  219  A    between atoms: _527  and  _529
REMARK  220  A    between atoms: _529  and  _530
REMARK  221  A    between atoms: _529  and  _532
REMARK  222  A    between atoms: _532  and  _533
REMARK                            x       y       z     vdW  Elec       q    Type
REMARK                         _______ _______ _______ _____ _____    ______ ____
ROOT
ATOM      1  O   HOH     1      19.814   2.612  19.782  0.00  0.00    +0.000 OA
ENDROOT
TORSDOF 0
REMARK  Name = ../refined-set-2016/3s45/3s45_pocket.pdb
REMARK  222 active torsions:
REMARK  status: ('A' for Active; 'I' for Inactive)
REMARK    1  A    between atoms: _1  and  _3
REMARK    2  A    between atoms: _3  and  _4
REMARK    3  A    between atoms: _3  and  _6
REMARK    4  A    between atoms: _6  and  _7
REMARK    5  A    between atoms: _7  and  _8
REMARK    6  A    between atoms: _8  and  _9
REMARK    7  A    between atoms: _18  and  _20
REMARK    8  A    between atoms: _20  and  _21
REMARK    9  A    between atoms: _20  and  _23
REMARK   10  A    between atoms: _23  and  _24
REMARK   11  A    between atoms: _27  and  _29
REMARK   12  A    between atoms: _29  and  _30
REMARK   13  A    between atoms: _29  and  _32
REMARK   14  A    between atoms: _32  and  _33
REMARK   15  A    between atoms: _36  and  _38
REMARK   16  A    between atoms: _38  and  _39
REMARK   17  A    between atoms: _38  and  _41
REMARK   18  A    between atoms: _41  and  _42
REMARK   19  A    between atoms: _45  and  _47
REMARK   20  A    between atoms: _47  and  _48
REMARK   21  A    between atoms: _47  and  _50
REMARK   22  A    between atoms: _50  and  _51
REMARK   23  A    between atoms: _54  and  _56
REMARK   24  A    between atoms: _56  and  _57
REMARK   25  A    between atoms: _59  and  _61
REMARK   26  A    between atoms: _61  and  _62
REMARK   27  A    between atoms: _65  and  _67
REMARK   28  A    between atoms: _67  and  _68
REMARK   29  A    between atoms: _67  and  _70
REMARK   30  A    between atoms: _70  and  _71
REMARK   31  A    between atoms: _74  and  _76
REMARK   32  A    between atoms: _76  and  _77
REMARK   33  A    between atoms: _76  and  _79
REMARK   34  A    between atoms: _79  and  _80
REMARK   35  A    between atoms: _83  and  _85
REMARK   36  A    between atoms: _85  and  _86
REMARK   37  A    between atoms: _85  and  _88
REMARK   38  A    between atoms: _88  and  _89
REMARK   39  A    between atoms: _91  and  _93
REMARK   40  A    between atoms: _93  and  _94
REMARK   41  A    between atoms: _93  and  _96
REMARK   42  A    between atoms: _96  and  _97
REMARK   43  A    between atoms: _100  and  _102
REMARK   44  A    between atoms: _102  and  _103
REMARK   45  A    between atoms: _102  and  _105
REMARK   46  A    between atoms: _105  and  _106
REMARK   47  A    between atoms: _106  and  _107
REMARK   48  A    between atoms: _107  and  _108
REMARK   49  A    between atoms: _108  and  _109
REMARK   50  A    between atoms: _113  and  _115
REMARK   51  A    between atoms: _115  and  _116
REMARK   52  A    between atoms: _115  and  _118
REMARK   53  A    between atoms: _118  and  _119
REMARK   54  A    between atoms: _122  and  _124
REMARK   55  A    between atoms: _124  and  _125
REMARK   56  A    between atoms: _124  and  _127
REMARK   57  A    between atoms: _130  and  _132
REMARK   58  A    between atoms: _132  and  _133
REMARK   59  A    between atoms: _135  and  _137
REMARK   60  A    between atoms: _137  and  _138
REMARK   61  A    between atoms: _140  and  _142
REMARK   62  A    between atoms: _142  and  _143
REMARK   63  A    between atoms: _142  and  _145
REMARK   64  A    between atoms: _145  and  _146
REMARK   65  A    between atoms: _149  and  _151
REMARK   66  A    between atoms: _151  and  _152
REMARK   67  A    between atoms: _154  and  _156
REMARK   68  A    between atoms: _156  and  _157
REMARK   69  A    between atoms: _159  and  _161
REMARK   70  A    between atoms: _161  and  _162
REMARK   71  A    between atoms: _161  and  _164
REMARK   72  A    between atoms: _164  and  _165
REMARK   73  A    between atoms: _168  and  _170
REMARK   74  A    between atoms: _170  and  _171
REMARK   75  A    between atoms: _170  and  _173
REMARK   76  A    between atoms: _173  and  _174
REMARK   77  A    between atoms: _177  and  _179
REMARK   78  A    between atoms: _179  and  _180
REMARK   79  A    between atoms: _179  and  _182
REMARK   80  A    between atoms: _182  and  _183
REMARK   81  A    between atoms: _183  and  _184
REMARK   82  A    between atoms: _186  and  _188
REMARK   83  A    between atoms: _188  and  _189
REMARK   84  A    between atoms: _188  and  _191
REMARK   85  A    between atoms: _191  and  _192
REMARK   86  A    between atoms: _196  and  _197
REMARK   87  A    between atoms: _202  and  _204
REMARK   88  A    between atoms: _204  and  _205
REMARK   89  A    between atoms: _204  and  _207
REMARK   90  A    between atoms: _207  and  _208
REMARK   91  A    between atoms: _211  and  _213
REMARK   92  A    between atoms: _213  and  _214
REMARK   93  A    between atoms: _213  and  _216
REMARK   94  A    between atoms: _216  and  _217
REMARK   95  A    between atoms: _222  and  _224
REMARK   96  A    between atoms: _224  and  _225
REMARK   97  A    between atoms: _224  and  _227
REMARK   98  A    between atoms: _227  and  _228
REMARK   99  A    between atoms: _231  and  _233
REMARK  100  A    between atoms: _233  and  _234
REMARK  101  A    between atoms: _233  and  _236
REMARK  102  A    between atoms: _236  and  _237
REMARK  103  A    between atoms: _243  and  _245
REMARK  104  A    between atoms: _245  and  _246
REMARK  105  A    between atoms: _248  and  _250
REMARK  106  A    between atoms: _250  and  _251
REMARK  107  A    between atoms: _250  and  _253
REMARK  108  A    between atoms: _253  and  _254
REMARK  109  A    between atoms: _254  and  _255
REMARK  110  A    between atoms: _255  and  _256
REMARK  111  A    between atoms: _265  and  _267
REMARK  112  A    between atoms: _267  and  _268
REMARK  113  A    between atoms: _267  and  _270
REMARK  114  A    between atoms: _270  and  _271
REMARK  115  A    between atoms: _276  and  _278
REMARK  116  A    between atoms: _278  and  _279
REMARK  117  A    between atoms: _278  and  _281
REMARK  118  A    between atoms: _281  and  _282
REMARK  119  A    between atoms: _282  and  _283
REMARK  120  A    between atoms: _283  and  _284
REMARK  121  A    between atoms: _293  and  _295
REMARK  122  A    between atoms: _295  and  _296
REMARK  123  A    between atoms: _295  and  _298
REMARK  124  A    between atoms: _298  and  _299
REMARK  125  A    between atoms: _302  and  _304
REMARK  126  A    between atoms: _304  and  _305
REMARK  127  A    between atoms: _304  and  _307
REMARK  128  A    between atoms: _307  and  _308
REMARK  129  A    between atoms: _311  and  _313
REMARK  130  A    between atoms: _313  and  _314
REMARK  131  A    between atoms: _313  and  _316
REMARK  132  A    between atoms: _316  and  _317
REMARK  133  A    between atoms: _320  and  _322
REMARK  134  A    between atoms: _322  and  _323
REMARK  135  A    between atoms: _322  and  _325
REMARK  136  A    between atoms: _325  and  _326
REMARK  137  A    between atoms: _329  and  _331
REMARK  138  A    between atoms: _331  and  _332
REMARK  139  A    between atoms: _334  and  _336
REMARK  140  A    between atoms: _336  and  _337
REMARK  141  A    between atoms: _340  and  _342
REMARK  142  A    between atoms: _342  and  _343
REMARK  143  A    between atoms: _342  and  _345
REMARK  144  A    between atoms: _345  and  _346
REMARK  145  A    between atoms: _349  and  _351
REMARK  146  A    between atoms: _351  and  _352
REMARK  147  A    between atoms: _351  and  _354
REMARK  148  A    between atoms: _354  and  _355
REMARK  149  A    between atoms: _355  and  _357
REMARK  150  A    between atoms: _358  and  _360
REMARK  151  A    between atoms: _360  and  _361
REMARK  152  A    between atoms: _360  and  _363
REMARK  153  A    between atoms: _363  and  _364
REMARK  154  A    between atoms: _366  and  _368
REMARK  155  A    between atoms: _368  and  _369
REMARK  156  A    between atoms: _368  and  _371
REMARK  157  A    between atoms: _371  and  _372
REMARK  158  A    between atoms: _375  and  _377
REMARK  159  A    between atoms: _377  and  _378
REMARK  160  A    between atoms: _377  and  _380
REMARK  161  A    between atoms: _380  and  _381
REMARK  162  A    between atoms: _384  and  _386
REMARK  163  A    between atoms: _386  and  _387
REMARK  164  A    between atoms: _386  and  _389
REMARK  165  A    between atoms: _392  and  _394
REMARK  166  A    between atoms: _394  and  _395
REMARK  167  A    between atoms: _397  and  _399
REMARK  168  A    between atoms: _399  and  _400
REMARK  169  A    between atoms: _402  and  _404
REMARK  170  A    between atoms: _404  and  _405
REMARK  171  A    between atoms: _404  and  _407
REMARK  172  A    between atoms: _407  and  _408
REMARK  173  A    between atoms: _411  and  _413
REMARK  174  A    between atoms: _413  and  _414
REMARK  175  A    between atoms: _416  and  _418
REMARK  176  A    between atoms: _418  and  _419
REMARK  177  A    between atoms: _421  and  _423
REMARK  178  A    between atoms: _423  and  _424
REMARK  179  A    between atoms: _423  and  _426
REMARK  180  A    between atoms: _426  and  _427
REMARK  181  A    between atoms: _430  and  _432
REMARK  182  A    between atoms: _432  and  _433
REMARK  183  A    between atoms: _432  and  _435
REMARK  184  A    between atoms: _435  and  _436
REMARK  185  A    between atoms: _439  and  _441
REMARK  186  A    between atoms: _441  and  _442
REMARK  187  A    between atoms: _441  and  _444
REMARK  188  A    between atoms: _444  and  _445
REMARK  189  A    between atoms: _445  and  _446
REMARK  190  A    between atoms: _448  and  _450
REMARK  191  A    between atoms: _450  and  _451
REMARK  192  A    between atoms: _450  and  _453
REMARK  193  A    between atoms: _453  and  _454
REMARK  194  A    between atoms: _458  and  _459
REMARK  195  A    between atoms: _464  and  _466
REMARK  196  A    between atoms: _466  and  _467
REMARK  197  A    between atoms: _466  and  _469
REMARK  198  A    between atoms: _469  and  _470
REMARK  199  A    between atoms: _473  and  _475
REMARK  200  A    between atoms: _475  and  _476
REMARK  201  A    between atoms: _475  and  _478
REMARK  202  A    between atoms: _478  and  _479
REMARK  203  A    between atoms: _484  and  _486
REMARK  204  A    between atoms: _486  and  _487
REMARK  205  A    between atoms: _486  and  _489
REMARK  206  A    between atoms: _489  and  _490
REMARK  207  A    between atoms: _493  and  _495
REMARK  208  A    between atoms: _495  and  _496
REMARK  209  A    between atoms: _495  and  _498
REMARK  210  A    between atoms: _498  and  _499
REMARK  211  A    between atoms: _505  and  _507
REMARK  212  A    between atoms: _507  and  _508
REMARK  213  A    between atoms: _510  and  _512
REMARK  214  A    between atoms: _512  and  _513
REMARK  215  A    between atoms: _512  and  _515
REMARK  216  A    between atoms: _515  and  _516
REMARK  217  A    between atoms: _516  and  _517
REMARK  218  A    between atoms: _517  and  _518
REMARK  219  A    between atoms: _527  and  _529
REMARK  220  A    between atoms: _529  and  _530
REMARK  221  A    between atoms: _529  and  _532
REMARK  222  A    between atoms: _532  and  _533
REMARK                            x       y       z     vdW  Elec       q    Type
REMARK                         _______ _______ _______ _____ _____    ______ ____
ROOT
ATOM      1  O   HOH     1      19.808   1.143  17.035  0.00  0.00    +0.000 OA
ENDROOT
TORSDOF 0
REMARK  Name = ../refined-set-2016/3s45/3s45_pocket.pdb
REMARK  222 active torsions:
REMARK  status: ('A' for Active; 'I' for Inactive)
REMARK    1  A    between atoms: _1  and  _3
REMARK    2  A    between atoms: _3  and  _4
REMARK    3  A    between atoms: _3  and  _6
REMARK    4  A    between atoms: _6  and  _7
REMARK    5  A    between atoms: _7  and  _8
REMARK    6  A    between atoms: _8  and  _9
REMARK    7  A    between atoms: _18  and  _20
REMARK    8  A    between atoms: _20  and  _21
REMARK    9  A    between atoms: _20  and  _23
REMARK   10  A    between atoms: _23  and  _24
REMARK   11  A    between atoms: _27  and  _29
REMARK   12  A    between atoms: _29  and  _30
REMARK   13  A    between atoms: _29  and  _32
REMARK   14  A    between atoms: _32  and  _33
REMARK   15  A    between atoms: _36  and  _38
REMARK   16  A    between atoms: _38  and  _39
REMARK   17  A    between atoms: _38  and  _41
REMARK   18  A    between atoms: _41  and  _42
REMARK   19  A    between atoms: _45  and  _47
REMARK   20  A    between atoms: _47  and  _48
REMARK   21  A    between atoms: _47  and  _50
REMARK   22  A    between atoms: _50  and  _51
REMARK   23  A    between atoms: _54  and  _56
REMARK   24  A    between atoms: _56  and  _57
REMARK   25  A    between atoms: _59  and  _61
REMARK   26  A    between atoms: _61  and  _62
REMARK   27  A    between atoms: _65  and  _67
REMARK   28  A    between atoms: _67  and  _68
REMARK   29  A    between atoms: _67  and  _70
REMARK   30  A    between atoms: _70  and  _71
REMARK   31  A    between atoms: _74  and  _76
REMARK   32  A    between atoms: _76  and  _77
REMARK   33  A    between atoms: _76  and  _79
REMARK   34  A    between atoms: _79  and  _80
REMARK   35  A    between atoms: _83  and  _85
REMARK   36  A    between atoms: _85  and  _86
REMARK   37  A    between atoms: _85  and  _88
REMARK   38  A    between atoms: _88  and  _89
REMARK   39  A    between atoms: _91  and  _93
REMARK   40  A    between atoms: _93  and  _94
REMARK   41  A    between atoms: _93  and  _96
REMARK   42  A    between atoms: _96  and  _97
REMARK   43  A    between atoms: _100  and  _102
REMARK   44  A    between atoms: _102  and  _103
REMARK   45  A    between atoms: _102  and  _105
REMARK   46  A    between atoms: _105  and  _106
REMARK   47  A    between atoms: _106  and  _107
REMARK   48  A    between atoms: _107  and  _108
REMARK   49  A    between atoms: _108  and  _109
REMARK   50  A    between atoms: _113  and  _115
REMARK   51  A    between atoms: _115  and  _116
REMARK   52  A    between atoms: _115  and  _118
REMARK   53  A    between atoms: _118  and  _119
REMARK   54  A    between atoms: _122  and  _124
REMARK   55  A    between atoms: _124  and  _125
REMARK   56  A    between atoms: _124  and  _127
REMARK   57  A    between atoms: _130  and  _132
REMARK   58  A    between atoms: _132  and  _133
REMARK   59  A    between atoms: _135  and  _137
REMARK   60  A    between atoms: _137  and  _138
REMARK   61  A    between atoms: _140  and  _142
REMARK   62  A    between atoms: _142  and  _143
REMARK   63  A    between atoms: _142  and  _145
REMARK   64  A    between atoms: _145  and  _146
REMARK   65  A    between atoms: _149  and  _151
REMARK   66  A    between atoms: _151  and  _152
REMARK   67  A    between atoms: _154  and  _156
REMARK   68  A    between atoms: _156  and  _157
REMARK   69  A    between atoms: _159  and  _161
REMARK   70  A    between atoms: _161  and  _162
REMARK   71  A    between atoms: _161  and  _164
REMARK   72  A    between atoms: _164  and  _165
REMARK   73  A    between atoms: _168  and  _170
REMARK   74  A    between atoms: _170  and  _171
REMARK   75  A    between atoms: _170  and  _173
REMARK   76  A    between atoms: _173  and  _174
REMARK   77  A    between atoms: _177  and  _179
REMARK   78  A    between atoms: _179  and  _180
REMARK   79  A    between atoms: _179  and  _182
REMARK   80  A    between atoms: _182  and  _183
REMARK   81  A    between atoms: _183  and  _184
REMARK   82  A    between atoms: _186  and  _188
REMARK   83  A    between atoms: _188  and  _189
REMARK   84  A    between atoms: _188  and  _191
REMARK   85  A    between atoms: _191  and  _192
REMARK   86  A    between atoms: _196  and  _197
REMARK   87  A    between atoms: _202  and  _204
REMARK   88  A    between atoms: _204  and  _205
REMARK   89  A    between atoms: _204  and  _207
REMARK   90  A    between atoms: _207  and  _208
REMARK   91  A    between atoms: _211  and  _213
REMARK   92  A    between atoms: _213  and  _214
REMARK   93  A    between atoms: _213  and  _216
REMARK   94  A    between atoms: _216  and  _217
REMARK   95  A    between atoms: _222  and  _224
REMARK   96  A    between atoms: _224  and  _225
REMARK   97  A    between atoms: _224  and  _227
REMARK   98  A    between atoms: _227  and  _228
REMARK   99  A    between atoms: _231  and  _233
REMARK  100  A    between atoms: _233  and  _234
REMARK  101  A    between atoms: _233  and  _236
REMARK  102  A    between atoms: _236  and  _237
REMARK  103  A    between atoms: _243  and  _245
REMARK  104  A    between atoms: _245  and  _246
REMARK  105  A    between atoms: _248  and  _250
REMARK  106  A    between atoms: _250  and  _251
REMARK  107  A    between atoms: _250  and  _253
REMARK  108  A    between atoms: _253  and  _254
REMARK  109  A    between atoms: _254  and  _255
REMARK  110  A    between atoms: _255  and  _256
REMARK  111  A    between atoms: _265  and  _267
REMARK  112  A    between atoms: _267  and  _268
REMARK  113  A    between atoms: _267  and  _270
REMARK  114  A    between atoms: _270  and  _271
REMARK  115  A    between atoms: _276  and  _278
REMARK  116  A    between atoms: _278  and  _279
REMARK  117  A    between atoms: _278  and  _281
REMARK  118  A    between atoms: _281  and  _282
REMARK  119  A    between atoms: _282  and  _283
REMARK  120  A    between atoms: _283  and  _284
REMARK  121  A    between atoms: _293  and  _295
REMARK  122  A    between atoms: _295  and  _296
REMARK  123  A    between atoms: _295  and  _298
REMARK  124  A    between atoms: _298  and  _299
REMARK  125  A    between atoms: _302  and  _304
REMARK  126  A    between atoms: _304  and  _305
REMARK  127  A    between atoms: _304  and  _307
REMARK  128  A    between atoms: _307  and  _308
REMARK  129  A    between atoms: _311  and  _313
REMARK  130  A    between atoms: _313  and  _314
REMARK  131  A    between atoms: _313  and  _316
REMARK  132  A    between atoms: _316  and  _317
REMARK  133  A    between atoms: _320  and  _322
REMARK  134  A    between atoms: _322  and  _323
REMARK  135  A    between atoms: _322  and  _325
REMARK  136  A    between atoms: _325  and  _326
REMARK  137  A    between atoms: _329  and  _331
REMARK  138  A    between atoms: _331  and  _332
REMARK  139  A    between atoms: _334  and  _336
REMARK  140  A    between atoms: _336  and  _337
REMARK  141  A    between atoms: _340  and  _342
REMARK  142  A    between atoms: _342  and  _343
REMARK  143  A    between atoms: _342  and  _345
REMARK  144  A    between atoms: _345  and  _346
REMARK  145  A    between atoms: _349  and  _351
REMARK  146  A    between atoms: _351  and  _352
REMARK  147  A    between atoms: _351  and  _354
REMARK  148  A    between atoms: _354  and  _355
REMARK  149  A    between atoms: _355  and  _357
REMARK  150  A    between atoms: _358  and  _360
REMARK  151  A    between atoms: _360  and  _361
REMARK  152  A    between atoms: _360  and  _363
REMARK  153  A    between atoms: _363  and  _364
REMARK  154  A    between atoms: _366  and  _368
REMARK  155  A    between atoms: _368  and  _369
REMARK  156  A    between atoms: _368  and  _371
REMARK  157  A    between atoms: _371  and  _372
REMARK  158  A    between atoms: _375  and  _377
REMARK  159  A    between atoms: _377  and  _378
REMARK  160  A    between atoms: _377  and  _380
REMARK  161  A    between atoms: _380  and  _381
REMARK  162  A    between atoms: _384  and  _386
REMARK  163  A    between atoms: _386  and  _387
REMARK  164  A    between atoms: _386  and  _389
REMARK  165  A    between atoms: _392  and  _394
REMARK  166  A    between atoms: _394  and  _395
REMARK  167  A    between atoms: _397  and  _399
REMARK  168  A    between atoms: _399  and  _400
REMARK  169  A    between atoms: _402  and  _404
REMARK  170  A    between atoms: _404  and  _405
REMARK  171  A    between atoms: _404  and  _407
REMARK  172  A    between atoms: _407  and  _408
REMARK  173  A    between atoms: _411  and  _413
REMARK  174  A    between atoms: _413  and  _414
REMARK  175  A    between atoms: _416  and  _418
REMARK  176  A    between atoms: _418  and  _419
REMARK  177  A    between atoms: _421  and  _423
REMARK  178  A    between atoms: _423  and  _424
REMARK  179  A    between atoms: _423  and  _426
REMARK  180  A    between atoms: _426  and  _427
REMARK  181  A    between atoms: _430  and  _432
REMARK  182  A    between atoms: _432  and  _433
REMARK  183  A    between atoms: _432  and  _435
REMARK  184  A    between atoms: _435  and  _436
REMARK  185  A    between atoms: _439  and  _441
REMARK  186  A    between atoms: _441  and  _442
REMARK  187  A    between atoms: _441  and  _444
REMARK  188  A    between atoms: _444  and  _445
REMARK  189  A    between atoms: _445  and  _446
REMARK  190  A    between atoms: _448  and  _450
REMARK  191  A    between atoms: _450  and  _451
REMARK  192  A    between atoms: _450  and  _453
REMARK  193  A    between atoms: _453  and  _454
REMARK  194  A    between atoms: _458  and  _459
REMARK  195  A    between atoms: _464  and  _466
REMARK  196  A    between atoms: _466  and  _467
REMARK  197  A    between atoms: _466  and  _469
REMARK  198  A    between atoms: _469  and  _470
REMARK  199  A    between atoms: _473  and  _475
REMARK  200  A    between atoms: _475  and  _476
REMARK  201  A    between atoms: _475  and  _478
REMARK  202  A    between atoms: _478  and  _479
REMARK  203  A    between atoms: _484  and  _486
REMARK  204  A    between atoms: _486  and  _487
REMARK  205  A    between atoms: _486  and  _489
REMARK  206  A    between atoms: _489  and  _490
REMARK  207  A    between atoms: _493  and  _495
REMARK  208  A    between atoms: _495  and  _496
REMARK  209  A    between atoms: _495  and  _498
REMARK  210  A    between atoms: _498  and  _499
REMARK  211  A    between atoms: _505  and  _507
REMARK  212  A    between atoms: _507  and  _508
REMARK  213  A    between atoms: _510  and  _512
REMARK  214  A    between atoms: _512  and  _513
REMARK  215  A    between atoms: _512  and  _515
REMARK  216  A    between atoms: _515  and  _516
REMARK  217  A    between atoms: _516  and  _517
REMARK  218  A    between atoms: _517  and  _518
REMARK  219  A    between atoms: _527  and  _529
REMARK  220  A    between atoms: _529  and  _530
REMARK  221  A    between atoms: _529  and  _532
REMARK  222  A    between atoms: _532  and  _533
REMARK                            x       y       z     vdW  Elec       q    Type
REMARK                         _______ _______ _______ _____ _____    ______ ____
ROOT
ATOM      1  O   HOH     1      15.653   5.629  25.204  0.00  0.00    +0.000 OA
ENDROOT
TORSDOF 0
REMARK  Name = ../refined-set-2016/3s45/3s45_pocket.pdb
REMARK  222 active torsions:
REMARK  status: ('A' for Active; 'I' for Inactive)
REMARK    1  A    between atoms: _1  and  _3
REMARK    2  A    between atoms: _3  and  _4
REMARK    3  A    between atoms: _3  and  _6
REMARK    4  A    between atoms: _6  and  _7
REMARK    5  A    between atoms: _7  and  _8
REMARK    6  A    between atoms: _8  and  _9
REMARK    7  A    between atoms: _18  and  _20
REMARK    8  A    between atoms: _20  and  _21
REMARK    9  A    between atoms: _20  and  _23
REMARK   10  A    between atoms: _23  and  _24
REMARK   11  A    between atoms: _27  and  _29
REMARK   12  A    between atoms: _29  and  _30
REMARK   13  A    between atoms: _29  and  _32
REMARK   14  A    between atoms: _32  and  _33
REMARK   15  A    between atoms: _36  and  _38
REMARK   16  A    between atoms: _38  and  _39
REMARK   17  A    between atoms: _38  and  _41
REMARK   18  A    between atoms: _41  and  _42
REMARK   19  A    between atoms: _45  and  _47
REMARK   20  A    between atoms: _47  and  _48
REMARK   21  A    between atoms: _47  and  _50
REMARK   22  A    between atoms: _50  and  _51
REMARK   23  A    between atoms: _54  and  _56
REMARK   24  A    between atoms: _56  and  _57
REMARK   25  A    between atoms: _59  and  _61
REMARK   26  A    between atoms: _61  and  _62
REMARK   27  A    between atoms: _65  and  _67
REMARK   28  A    between atoms: _67  and  _68
REMARK   29  A    between atoms: _67  and  _70
REMARK   30  A    between atoms: _70  and  _71
REMARK   31  A    between atoms: _74  and  _76
REMARK   32  A    between atoms: _76  and  _77
REMARK   33  A    between atoms: _76  and  _79
REMARK   34  A    between atoms: _79  and  _80
REMARK   35  A    between atoms: _83  and  _85
REMARK   36  A    between atoms: _85  and  _86
REMARK   37  A    between atoms: _85  and  _88
REMARK   38  A    between atoms: _88  and  _89
REMARK   39  A    between atoms: _91  and  _93
REMARK   40  A    between atoms: _93  and  _94
REMARK   41  A    between atoms: _93  and  _96
REMARK   42  A    between atoms: _96  and  _97
REMARK   43  A    between atoms: _100  and  _102
REMARK   44  A    between atoms: _102  and  _103
REMARK   45  A    between atoms: _102  and  _105
REMARK   46  A    between atoms: _105  and  _106
REMARK   47  A    between atoms: _106  and  _107
REMARK   48  A    between atoms: _107  and  _108
REMARK   49  A    between atoms: _108  and  _109
REMARK   50  A    between atoms: _113  and  _115
REMARK   51  A    between atoms: _115  and  _116
REMARK   52  A    between atoms: _115  and  _118
REMARK   53  A    between atoms: _118  and  _119
REMARK   54  A    between atoms: _122  and  _124
REMARK   55  A    between atoms: _124  and  _125
REMARK   56  A    between atoms: _124  and  _127
REMARK   57  A    between atoms: _130  and  _132
REMARK   58  A    between atoms: _132  and  _133
REMARK   59  A    between atoms: _135  and  _137
REMARK   60  A    between atoms: _137  and  _138
REMARK   61  A    between atoms: _140  and  _142
REMARK   62  A    between atoms: _142  and  _143
REMARK   63  A    between atoms: _142  and  _145
REMARK   64  A    between atoms: _145  and  _146
REMARK   65  A    between atoms: _149  and  _151
REMARK   66  A    between atoms: _151  and  _152
REMARK   67  A    between atoms: _154  and  _156
REMARK   68  A    between atoms: _156  and  _157
REMARK   69  A    between atoms: _159  and  _161
REMARK   70  A    between atoms: _161  and  _162
REMARK   71  A    between atoms: _161  and  _164
REMARK   72  A    between atoms: _164  and  _165
REMARK   73  A    between atoms: _168  and  _170
REMARK   74  A    between atoms: _170  and  _171
REMARK   75  A    between atoms: _170  and  _173
REMARK   76  A    between atoms: _173  and  _174
REMARK   77  A    between atoms: _177  and  _179
REMARK   78  A    between atoms: _179  and  _180
REMARK   79  A    between atoms: _179  and  _182
REMARK   80  A    between atoms: _182  and  _183
REMARK   81  A    between atoms: _183  and  _184
REMARK   82  A    between atoms: _186  and  _188
REMARK   83  A    between atoms: _188  and  _189
REMARK   84  A    between atoms: _188  and  _191
REMARK   85  A    between atoms: _191  and  _192
REMARK   86  A    between atoms: _196  and  _197
REMARK   87  A    between atoms: _202  and  _204
REMARK   88  A    between atoms: _204  and  _205
REMARK   89  A    between atoms: _204  and  _207
REMARK   90  A    between atoms: _207  and  _208
REMARK   91  A    between atoms: _211  and  _213
REMARK   92  A    between atoms: _213  and  _214
REMARK   93  A    between atoms: _213  and  _216
REMARK   94  A    between atoms: _216  and  _217
REMARK   95  A    between atoms: _222  and  _224
REMARK   96  A    between atoms: _224  and  _225
REMARK   97  A    between atoms: _224  and  _227
REMARK   98  A    between atoms: _227  and  _228
REMARK   99  A    between atoms: _231  and  _233
REMARK  100  A    between atoms: _233  and  _234
REMARK  101  A    between atoms: _233  and  _236
REMARK  102  A    between atoms: _236  and  _237
REMARK  103  A    between atoms: _243  and  _245
REMARK  104  A    between atoms: _245  and  _246
REMARK  105  A    between atoms: _248  and  _250
REMARK  106  A    between atoms: _250  and  _251
REMARK  107  A    between atoms: _250  and  _253
REMARK  108  A    between atoms: _253  and  _254
REMARK  109  A    between atoms: _254  and  _255
REMARK  110  A    between atoms: _255  and  _256
REMARK  111  A    between atoms: _265  and  _267
REMARK  112  A    between atoms: _267  and  _268
REMARK  113  A    between atoms: _267  and  _270
REMARK  114  A    between atoms: _270  and  _271
REMARK  115  A    between atoms: _276  and  _278
REMARK  116  A    between atoms: _278  and  _279
REMARK  117  A    between atoms: _278  and  _281
REMARK  118  A    between atoms: _281  and  _282
REMARK  119  A    between atoms: _282  and  _283
REMARK  120  A    between atoms: _283  and  _284
REMARK  121  A    between atoms: _293  and  _295
REMARK  122  A    between atoms: _295  and  _296
REMARK  123  A    between atoms: _295  and  _298
REMARK  124  A    between atoms: _298  and  _299
REMARK  125  A    between atoms: _302  and  _304
REMARK  126  A    between atoms: _304  and  _305
REMARK  127  A    between atoms: _304  and  _307
REMARK  128  A    between atoms: _307  and  _308
REMARK  129  A    between atoms: _311  and  _313
REMARK  130  A    between atoms: _313  and  _314
REMARK  131  A    between atoms: _313  and  _316
REMARK  132  A    between atoms: _316  and  _317
REMARK  133  A    between atoms: _320  and  _322
REMARK  134  A    between atoms: _322  and  _323
REMARK  135  A    between atoms: _322  and  _325
REMARK  136  A    between atoms: _325  and  _326
REMARK  137  A    between atoms: _329  and  _331
REMARK  138  A    between atoms: _331  and  _332
REMARK  139  A    between atoms: _334  and  _336
REMARK  140  A    between atoms: _336  and  _337
REMARK  141  A    between atoms: _340  and  _342
REMARK  142  A    between atoms: _342  and  _343
REMARK  143  A    between atoms: _342  and  _345
REMARK  144  A    between atoms: _345  and  _346
REMARK  145  A    between atoms: _349  and  _351
REMARK  146  A    between atoms: _351  and  _352
REMARK  147  A    between atoms: _351  and  _354
REMARK  148  A    between atoms: _354  and  _355
REMARK  149  A    between atoms: _355  and  _357
REMARK  150  A    between atoms: _358  and  _360
REMARK  151  A    between atoms: _360  and  _361
REMARK  152  A    between atoms: _360  and  _363
REMARK  153  A    between atoms: _363  and  _364
REMARK  154  A    between atoms: _366  and  _368
REMARK  155  A    between atoms: _368  and  _369
REMARK  156  A    between atoms: _368  and  _371
REMARK  157  A    between atoms: _371  and  _372
REMARK  158  A    between atoms: _375  and  _377
REMARK  159  A    between atoms: _377  and  _378
REMARK  160  A    between atoms: _377  and  _380
REMARK  161  A    between atoms: _380  and  _381
REMARK  162  A    between atoms: _384  and  _386
REMARK  163  A    between atoms: _386  and  _387
REMARK  164  A    between atoms: _386  and  _389
REMARK  165  A    between atoms: _392  and  _394
REMARK  166  A    between atoms: _394  and  _395
REMARK  167  A    between atoms: _397  and  _399
REMARK  168  A    between atoms: _399  and  _400
REMARK  169  A    between atoms: _402  and  _404
REMARK  170  A    between atoms: _404  and  _405
REMARK  171  A    between atoms: _404  and  _407
REMARK  172  A    between atoms: _407  and  _408
REMARK  173  A    between atoms: _411  and  _413
REMARK  174  A    between atoms: _413  and  _414
REMARK  175  A    between atoms: _416  and  _418
REMARK  176  A    between atoms: _418  and  _419
REMARK  177  A    between atoms: _421  and  _423
REMARK  178  A    between atoms: _423  and  _424
REMARK  179  A    between atoms: _423  and  _426
REMARK  180  A    between atoms: _426  and  _427
REMARK  181  A    between atoms: _430  and  _432
REMARK  182  A    between atoms: _432  and  _433
REMARK  183  A    between atoms: _432  and  _435
REMARK  184  A    between atoms: _435  and  _436
REMARK  185  A    between atoms: _439  and  _441
REMARK  186  A    between atoms: _441  and  _442
REMARK  187  A    between atoms: _441  and  _444
REMARK  188  A    between atoms: _444  and  _445
REMARK  189  A    between atoms: _445  and  _446
REMARK  190  A    between atoms: _448  and  _450
REMARK  191  A    between atoms: _450  and  _451
REMARK  192  A    between atoms: _450  and  _453
REMARK  193  A    between atoms: _453  and  _454
REMARK  194  A    between atoms: _458  and  _459
REMARK  195  A    between atoms: _464  and  _466
REMARK  196  A    between atoms: _466  and  _467
REMARK  197  A    between atoms: _466  and  _469
REMARK  198  A    between atoms: _469  and  _470
REMARK  199  A    between atoms: _473  and  _475
REMARK  200  A    between atoms: _475  and  _476
REMARK  201  A    between atoms: _475  and  _478
REMARK  202  A    between atoms: _478  and  _479
REMARK  203  A    between atoms: _484  and  _486
REMARK  204  A    between atoms: _486  and  _487
REMARK  205  A    between atoms: _486  and  _489
REMARK  206  A    between atoms: _489  and  _490
REMARK  207  A    between atoms: _493  and  _495
REMARK  208  A    between atoms: _495  and  _496
REMARK  209  A    between atoms: _495  and  _498
REMARK  210  A    between atoms: _498  and  _499
REMARK  211  A    between atoms: _505  and  _507
REMARK  212  A    between atoms: _507  and  _508
REMARK  213  A    between atoms: _510  and  _512
REMARK  214  A    between atoms: _512  and  _513
REMARK  215  A    between atoms: _512  and  _515
REMARK  216  A    between atoms: _515  and  _516
REMARK  217  A    between atoms: _516  and  _517
REMARK  218  A    between atoms: _517  and  _518
REMARK  219  A    between atoms: _527  and  _529
REMARK  220  A    between atoms: _529  and  _530
REMARK  221  A    between atoms: _529  and  _532
REMARK  222  A    between atoms: _532  and  _533
REMARK                            x       y       z     vdW  Elec       q    Type
REMARK                         _______ _______ _______ _____ _____    ______ ____
ROOT
ATOM      1  O   HOH     1      15.454   6.220  28.708  0.00  0.00    +0.000 OA
ENDROOT
TORSDOF 0
REMARK  Name = ../refined-set-2016/3s45/3s45_pocket.pdb
REMARK  222 active torsions:
REMARK  status: ('A' for Active; 'I' for Inactive)
REMARK    1  A    between atoms: _1  and  _3
REMARK    2  A    between atoms: _3  and  _4
REMARK    3  A    between atoms: _3  and  _6
REMARK    4  A    between atoms: _6  and  _7
REMARK    5  A    between atoms: _7  and  _8
REMARK    6  A    between atoms: _8  and  _9
REMARK    7  A    between atoms: _18  and  _20
REMARK    8  A    between atoms: _20  and  _21
REMARK    9  A    between atoms: _20  and  _23
REMARK   10  A    between atoms: _23  and  _24
REMARK   11  A    between atoms: _27  and  _29
REMARK   12  A    between atoms: _29  and  _30
REMARK   13  A    between atoms: _29  and  _32
REMARK   14  A    between atoms: _32  and  _33
REMARK   15  A    between atoms: _36  and  _38
REMARK   16  A    between atoms: _38  and  _39
REMARK   17  A    between atoms: _38  and  _41
REMARK   18  A    between atoms: _41  and  _42
REMARK   19  A    between atoms: _45  and  _47
REMARK   20  A    between atoms: _47  and  _48
REMARK   21  A    between atoms: _47  and  _50
REMARK   22  A    between atoms: _50  and  _51
REMARK   23  A    between atoms: _54  and  _56
REMARK   24  A    between atoms: _56  and  _57
REMARK   25  A    between atoms: _59  and  _61
REMARK   26  A    between atoms: _61  and  _62
REMARK   27  A    between atoms: _65  and  _67
REMARK   28  A    between atoms: _67  and  _68
REMARK   29  A    between atoms: _67  and  _70
REMARK   30  A    between atoms: _70  and  _71
REMARK   31  A    between atoms: _74  and  _76
REMARK   32  A    between atoms: _76  and  _77
REMARK   33  A    between atoms: _76  and  _79
REMARK   34  A    between atoms: _79  and  _80
REMARK   35  A    between atoms: _83  and  _85
REMARK   36  A    between atoms: _85  and  _86
REMARK   37  A    between atoms: _85  and  _88
REMARK   38  A    between atoms: _88  and  _89
REMARK   39  A    between atoms: _91  and  _93
REMARK   40  A    between atoms: _93  and  _94
REMARK   41  A    between atoms: _93  and  _96
REMARK   42  A    between atoms: _96  and  _97
REMARK   43  A    between atoms: _100  and  _102
REMARK   44  A    between atoms: _102  and  _103
REMARK   45  A    between atoms: _102  and  _105
REMARK   46  A    between atoms: _105  and  _106
REMARK   47  A    between atoms: _106  and  _107
REMARK   48  A    between atoms: _107  and  _108
REMARK   49  A    between atoms: _108  and  _109
REMARK   50  A    between atoms: _113  and  _115
REMARK   51  A    between atoms: _115  and  _116
REMARK   52  A    between atoms: _115  and  _118
REMARK   53  A    between atoms: _118  and  _119
REMARK   54  A    between atoms: _122  and  _124
REMARK   55  A    between atoms: _124  and  _125
REMARK   56  A    between atoms: _124  and  _127
REMARK   57  A    between atoms: _130  and  _132
REMARK   58  A    between atoms: _132  and  _133
REMARK   59  A    between atoms: _135  and  _137
REMARK   60  A    between atoms: _137  and  _138
REMARK   61  A    between atoms: _140  and  _142
REMARK   62  A    between atoms: _142  and  _143
REMARK   63  A    between atoms: _142  and  _145
REMARK   64  A    between atoms: _145  and  _146
REMARK   65  A    between atoms: _149  and  _151
REMARK   66  A    between atoms: _151  and  _152
REMARK   67  A    between atoms: _154  and  _156
REMARK   68  A    between atoms: _156  and  _157
REMARK   69  A    between atoms: _159  and  _161
REMARK   70  A    between atoms: _161  and  _162
REMARK   71  A    between atoms: _161  and  _164
REMARK   72  A    between atoms: _164  and  _165
REMARK   73  A    between atoms: _168  and  _170
REMARK   74  A    between atoms: _170  and  _171
REMARK   75  A    between atoms: _170  and  _173
REMARK   76  A    between atoms: _173  and  _174
REMARK   77  A    between atoms: _177  and  _179
REMARK   78  A    between atoms: _179  and  _180
REMARK   79  A    between atoms: _179  and  _182
REMARK   80  A    between atoms: _182  and  _183
REMARK   81  A    between atoms: _183  and  _184
REMARK   82  A    between atoms: _186  and  _188
REMARK   83  A    between atoms: _188  and  _189
REMARK   84  A    between atoms: _188  and  _191
REMARK   85  A    between atoms: _191  and  _192
REMARK   86  A    between atoms: _196  and  _197
REMARK   87  A    between atoms: _202  and  _204
REMARK   88  A    between atoms: _204  and  _205
REMARK   89  A    between atoms: _204  and  _207
REMARK   90  A    between atoms: _207  and  _208
REMARK   91  A    between atoms: _211  and  _213
REMARK   92  A    between atoms: _213  and  _214
REMARK   93  A    between atoms: _213  and  _216
REMARK   94  A    between atoms: _216  and  _217
REMARK   95  A    between atoms: _222  and  _224
REMARK   96  A    between atoms: _224  and  _225
REMARK   97  A    between atoms: _224  and  _227
REMARK   98  A    between atoms: _227  and  _228
REMARK   99  A    between atoms: _231  and  _233
REMARK  100  A    between atoms: _233  and  _234
REMARK  101  A    between atoms: _233  and  _236
REMARK  102  A    between atoms: _236  and  _237
REMARK  103  A    between atoms: _243  and  _245
REMARK  104  A    between atoms: _245  and  _246
REMARK  105  A    between atoms: _248  and  _250
REMARK  106  A    between atoms: _250  and  _251
REMARK  107  A    between atoms: _250  and  _253
REMARK  108  A    between atoms: _253  and  _254
REMARK  109  A    between atoms: _254  and  _255
REMARK  110  A    between atoms: _255  and  _256
REMARK  111  A    between atoms: _265  and  _267
REMARK  112  A    between atoms: _267  and  _268
REMARK  113  A    between atoms: _267  and  _270
REMARK  114  A    between atoms: _270  and  _271
REMARK  115  A    between atoms: _276  and  _278
REMARK  116  A    between atoms: _278  and  _279
REMARK  117  A    between atoms: _278  and  _281
REMARK  118  A    between atoms: _281  and  _282
REMARK  119  A    between atoms: _282  and  _283
REMARK  120  A    between atoms: _283  and  _284
REMARK  121  A    between atoms: _293  and  _295
REMARK  122  A    between atoms: _295  and  _296
REMARK  123  A    between atoms: _295  and  _298
REMARK  124  A    between atoms: _298  and  _299
REMARK  125  A    between atoms: _302  and  _304
REMARK  126  A    between atoms: _304  and  _305
REMARK  127  A    between atoms: _304  and  _307
REMARK  128  A    between atoms: _307  and  _308
REMARK  129  A    between atoms: _311  and  _313
REMARK  130  A    between atoms: _313  and  _314
REMARK  131  A    between atoms: _313  and  _316
REMARK  132  A    between atoms: _316  and  _317
REMARK  133  A    between atoms: _320  and  _322
REMARK  134  A    between atoms: _322  and  _323
REMARK  135  A    between atoms: _322  and  _325
REMARK  136  A    between atoms: _325  and  _326
REMARK  137  A    between atoms: _329  and  _331
REMARK  138  A    between atoms: _331  and  _332
REMARK  139  A    between atoms: _334  and  _336
REMARK  140  A    between atoms: _336  and  _337
REMARK  141  A    between atoms: _340  and  _342
REMARK  142  A    between atoms: _342  and  _343
REMARK  143  A    between atoms: _342  and  _345
REMARK  144  A    between atoms: _345  and  _346
REMARK  145  A    between atoms: _349  and  _351
REMARK  146  A    between atoms: _351  and  _352
REMARK  147  A    between atoms: _351  and  _354
REMARK  148  A    between atoms: _354  and  _355
REMARK  149  A    between atoms: _355  and  _357
REMARK  150  A    between atoms: _358  and  _360
REMARK  151  A    between atoms: _360  and  _361
REMARK  152  A    between atoms: _360  and  _363
REMARK  153  A    between atoms: _363  and  _364
REMARK  154  A    between atoms: _366  and  _368
REMARK  155  A    between atoms: _368  and  _369
REMARK  156  A    between atoms: _368  and  _371
REMARK  157  A    between atoms: _371  and  _372
REMARK  158  A    between atoms: _375  and  _377
REMARK  159  A    between atoms: _377  and  _378
REMARK  160  A    between atoms: _377  and  _380
REMARK  161  A    between atoms: _380  and  _381
REMARK  162  A    between atoms: _384  and  _386
REMARK  163  A    between atoms: _386  and  _387
REMARK  164  A    between atoms: _386  and  _389
REMARK  165  A    between atoms: _392  and  _394
REMARK  166  A    between atoms: _394  and  _395
REMARK  167  A    between atoms: _397  and  _399
REMARK  168  A    between atoms: _399  and  _400
REMARK  169  A    between atoms: _402  and  _404
REMARK  170  A    between atoms: _404  and  _405
REMARK  171  A    between atoms: _404  and  _407
REMARK  172  A    between atoms: _407  and  _408
REMARK  173  A    between atoms: _411  and  _413
REMARK  174  A    between atoms: _413  and  _414
REMARK  175  A    between atoms: _416  and  _418
REMARK  176  A    between atoms: _418  and  _419
REMARK  177  A    between atoms: _421  and  _423
REMARK  178  A    between atoms: _423  and  _424
REMARK  179  A    between atoms: _423  and  _426
REMARK  180  A    between atoms: _426  and  _427
REMARK  181  A    between atoms: _430  and  _432
REMARK  182  A    between atoms: _432  and  _433
REMARK  183  A    between atoms: _432  and  _435
REMARK  184  A    between atoms: _435  and  _436
REMARK  185  A    between atoms: _439  and  _441
REMARK  186  A    between atoms: _441  and  _442
REMARK  187  A    between atoms: _441  and  _444
REMARK  188  A    between atoms: _444  and  _445
REMARK  189  A    between atoms: _445  and  _446
REMARK  190  A    between atoms: _448  and  _450
REMARK  191  A    between atoms: _450  and  _451
REMARK  192  A    between atoms: _450  and  _453
REMARK  193  A    between atoms: _453  and  _454
REMARK  194  A    between atoms: _458  and  _459
REMARK  195  A    between atoms: _464  and  _466
REMARK  196  A    between atoms: _466  and  _467
REMARK  197  A    between atoms: _466  and  _469
REMARK  198  A    between atoms: _469  and  _470
REMARK  199  A    between atoms: _473  and  _475
REMARK  200  A    between atoms: _475  and  _476
REMARK  201  A    between atoms: _475  and  _478
REMARK  202  A    between atoms: _478  and  _479
REMARK  203  A    between atoms: _484  and  _486
REMARK  204  A    between atoms: _486  and  _487
REMARK  205  A    between atoms: _486  and  _489
REMARK  206  A    between atoms: _489  and  _490
REMARK  207  A    between atoms: _493  and  _495
REMARK  208  A    between atoms: _495  and  _496
REMARK  209  A    between atoms: _495  and  _498
REMARK  210  A    between atoms: _498  and  _499
REMARK  211  A    between atoms: _505  and  _507
REMARK  212  A    between atoms: _507  and  _508
REMARK  213  A    between atoms: _510  and  _512
REMARK  214  A    between atoms: _512  and  _513
REMARK  215  A    between atoms: _512  and  _515
REMARK  216  A    between atoms: _515  and  _516
REMARK  217  A    between atoms: _516  and  _517
REMARK  218  A    between atoms: _517  and  _518
REMARK  219  A    between atoms: _527  and  _529
REMARK  220  A    between atoms: _529  and  _530
REMARK  221  A    between atoms: _529  and  _532
REMARK  222  A    between atoms: _532  and  _533
REMARK                            x       y       z     vdW  Elec       q    Type
REMARK                         _______ _______ _______ _____ _____    ______ ____
ROOT
ATOM      1  O   HOH     1      17.048   5.009  27.116  0.00  0.00    +0.000 OA
ENDROOT
TORSDOF 0
REMARK  Name = ../refined-set-2016/3s45/3s45_pocket.pdb
REMARK  222 active torsions:
REMARK  status: ('A' for Active; 'I' for Inactive)
REMARK    1  A    between atoms: _1  and  _3
REMARK    2  A    between atoms: _3  and  _4
REMARK    3  A    between atoms: _3  and  _6
REMARK    4  A    between atoms: _6  and  _7
REMARK    5  A    between atoms: _7  and  _8
REMARK    6  A    between atoms: _8  and  _9
REMARK    7  A    between atoms: _18  and  _20
REMARK    8  A    between atoms: _20  and  _21
REMARK    9  A    between atoms: _20  and  _23
REMARK   10  A    between atoms: _23  and  _24
REMARK   11  A    between atoms: _27  and  _29
REMARK   12  A    between atoms: _29  and  _30
REMARK   13  A    between atoms: _29  and  _32
REMARK   14  A    between atoms: _32  and  _33
REMARK   15  A    between atoms: _36  and  _38
REMARK   16  A    between atoms: _38  and  _39
REMARK   17  A    between atoms: _38  and  _41
REMARK   18  A    between atoms: _41  and  _42
REMARK   19  A    between atoms: _45  and  _47
REMARK   20  A    between atoms: _47  and  _48
REMARK   21  A    between atoms: _47  and  _50
REMARK   22  A    between atoms: _50  and  _51
REMARK   23  A    between atoms: _54  and  _56
REMARK   24  A    between atoms: _56  and  _57
REMARK   25  A    between atoms: _59  and  _61
REMARK   26  A    between atoms: _61  and  _62
REMARK   27  A    between atoms: _65  and  _67
REMARK   28  A    between atoms: _67  and  _68
REMARK   29  A    between atoms: _67  and  _70
REMARK   30  A    between atoms: _70  and  _71
REMARK   31  A    between atoms: _74  and  _76
REMARK   32  A    between atoms: _76  and  _77
REMARK   33  A    between atoms: _76  and  _79
REMARK   34  A    between atoms: _79  and  _80
REMARK   35  A    between atoms: _83  and  _85
REMARK   36  A    between atoms: _85  and  _86
REMARK   37  A    between atoms: _85  and  _88
REMARK   38  A    between atoms: _88  and  _89
REMARK   39  A    between atoms: _91  and  _93
REMARK   40  A    between atoms: _93  and  _94
REMARK   41  A    between atoms: _93  and  _96
REMARK   42  A    between atoms: _96  and  _97
REMARK   43  A    between atoms: _100  and  _102
REMARK   44  A    between atoms: _102  and  _103
REMARK   45  A    between atoms: _102  and  _105
REMARK   46  A    between atoms: _105  and  _106
REMARK   47  A    between atoms: _106  and  _107
REMARK   48  A    between atoms: _107  and  _108
REMARK   49  A    between atoms: _108  and  _109
REMARK   50  A    between atoms: _113  and  _115
REMARK   51  A    between atoms: _115  and  _116
REMARK   52  A    between atoms: _115  and  _118
REMARK   53  A    between atoms: _118  and  _119
REMARK   54  A    between atoms: _122  and  _124
REMARK   55  A    between atoms: _124  and  _125
REMARK   56  A    between atoms: _124  and  _127
REMARK   57  A    between atoms: _130  and  _132
REMARK   58  A    between atoms: _132  and  _133
REMARK   59  A    between atoms: _135  and  _137
REMARK   60  A    between atoms: _137  and  _138
REMARK   61  A    between atoms: _140  and  _142
REMARK   62  A    between atoms: _142  and  _143
REMARK   63  A    between atoms: _142  and  _145
REMARK   64  A    between atoms: _145  and  _146
REMARK   65  A    between atoms: _149  and  _151
REMARK   66  A    between atoms: _151  and  _152
REMARK   67  A    between atoms: _154  and  _156
REMARK   68  A    between atoms: _156  and  _157
REMARK   69  A    between atoms: _159  and  _161
REMARK   70  A    between atoms: _161  and  _162
REMARK   71  A    between atoms: _161  and  _164
REMARK   72  A    between atoms: _164  and  _165
REMARK   73  A    between atoms: _168  and  _170
REMARK   74  A    between atoms: _170  and  _171
REMARK   75  A    between atoms: _170  and  _173
REMARK   76  A    between atoms: _173  and  _174
REMARK   77  A    between atoms: _177  and  _179
REMARK   78  A    between atoms: _179  and  _180
REMARK   79  A    between atoms: _179  and  _182
REMARK   80  A    between atoms: _182  and  _183
REMARK   81  A    between atoms: _183  and  _184
REMARK   82  A    between atoms: _186  and  _188
REMARK   83  A    between atoms: _188  and  _189
REMARK   84  A    between atoms: _188  and  _191
REMARK   85  A    between atoms: _191  and  _192
REMARK   86  A    between atoms: _196  and  _197
REMARK   87  A    between atoms: _202  and  _204
REMARK   88  A    between atoms: _204  and  _205
REMARK   89  A    between atoms: _204  and  _207
REMARK   90  A    between atoms: _207  and  _208
REMARK   91  A    between atoms: _211  and  _213
REMARK   92  A    between atoms: _213  and  _214
REMARK   93  A    between atoms: _213  and  _216
REMARK   94  A    between atoms: _216  and  _217
REMARK   95  A    between atoms: _222  and  _224
REMARK   96  A    between atoms: _224  and  _225
REMARK   97  A    between atoms: _224  and  _227
REMARK   98  A    between atoms: _227  and  _228
REMARK   99  A    between atoms: _231  and  _233
REMARK  100  A    between atoms: _233  and  _234
REMARK  101  A    between atoms: _233  and  _236
REMARK  102  A    between atoms: _236  and  _237
REMARK  103  A    between atoms: _243  and  _245
REMARK  104  A    between atoms: _245  and  _246
REMARK  105  A    between atoms: _248  and  _250
REMARK  106  A    between atoms: _250  and  _251
REMARK  107  A    between atoms: _250  and  _253
REMARK  108  A    between atoms: _253  and  _254
REMARK  109  A    between atoms: _254  and  _255
REMARK  110  A    between atoms: _255  and  _256
REMARK  111  A    between atoms: _265  and  _267
REMARK  112  A    between atoms: _267  and  _268
REMARK  113  A    between atoms: _267  and  _270
REMARK  114  A    between atoms: _270  and  _271
REMARK  115  A    between atoms: _276  and  _278
REMARK  116  A    between atoms: _278  and  _279
REMARK  117  A    between atoms: _278  and  _281
REMARK  118  A    between atoms: _281  and  _282
REMARK  119  A    between atoms: _282  and  _283
REMARK  120  A    between atoms: _283  and  _284
REMARK  121  A    between atoms: _293  and  _295
REMARK  122  A    between atoms: _295  and  _296
REMARK  123  A    between atoms: _295  and  _298
REMARK  124  A    between atoms: _298  and  _299
REMARK  125  A    between atoms: _302  and  _304
REMARK  126  A    between atoms: _304  and  _305
REMARK  127  A    between atoms: _304  and  _307
REMARK  128  A    between atoms: _307  and  _308
REMARK  129  A    between atoms: _311  and  _313
REMARK  130  A    between atoms: _313  and  _314
REMARK  131  A    between atoms: _313  and  _316
REMARK  132  A    between atoms: _316  and  _317
REMARK  133  A    between atoms: _320  and  _322
REMARK  134  A    between atoms: _322  and  _323
REMARK  135  A    between atoms: _322  and  _325
REMARK  136  A    between atoms: _325  and  _326
REMARK  137  A    between atoms: _329  and  _331
REMARK  138  A    between atoms: _331  and  _332
REMARK  139  A    between atoms: _334  and  _336
REMARK  140  A    between atoms: _336  and  _337
REMARK  141  A    between atoms: _340  and  _342
REMARK  142  A    between atoms: _342  and  _343
REMARK  143  A    between atoms: _342  and  _345
REMARK  144  A    between atoms: _345  and  _346
REMARK  145  A    between atoms: _349  and  _351
REMARK  146  A    between atoms: _351  and  _352
REMARK  147  A    between atoms: _351  and  _354
REMARK  148  A    between atoms: _354  and  _355
REMARK  149  A    between atoms: _355  and  _357
REMARK  150  A    between atoms: _358  and  _360
REMARK  151  A    between atoms: _360  and  _361
REMARK  152  A    between atoms: _360  and  _363
REMARK  153  A    between atoms: _363  and  _364
REMARK  154  A    between atoms: _366  and  _368
REMARK  155  A    between atoms: _368  and  _369
REMARK  156  A    between atoms: _368  and  _371
REMARK  157  A    between atoms: _371  and  _372
REMARK  158  A    between atoms: _375  and  _377
REMARK  159  A    between atoms: _377  and  _378
REMARK  160  A    between atoms: _377  and  _380
REMARK  161  A    between atoms: _380  and  _381
REMARK  162  A    between atoms: _384  and  _386
REMARK  163  A    between atoms: _386  and  _387
REMARK  164  A    between atoms: _386  and  _389
REMARK  165  A    between atoms: _392  and  _394
REMARK  166  A    between atoms: _394  and  _395
REMARK  167  A    between atoms: _397  and  _399
REMARK  168  A    between atoms: _399  and  _400
REMARK  169  A    between atoms: _402  and  _404
REMARK  170  A    between atoms: _404  and  _405
REMARK  171  A    between atoms: _404  and  _407
REMARK  172  A    between atoms: _407  and  _408
REMARK  173  A    between atoms: _411  and  _413
REMARK  174  A    between atoms: _413  and  _414
REMARK  175  A    between atoms: _416  and  _418
REMARK  176  A    between atoms: _418  and  _419
REMARK  177  A    between atoms: _421  and  _423
REMARK  178  A    between atoms: _423  and  _424
REMARK  179  A    between atoms: _423  and  _426
REMARK  180  A    between atoms: _426  and  _427
REMARK  181  A    between atoms: _430  and  _432
REMARK  182  A    between atoms: _432  and  _433
REMARK  183  A    between atoms: _432  and  _435
REMARK  184  A    between atoms: _435  and  _436
REMARK  185  A    between atoms: _439  and  _441
REMARK  186  A    between atoms: _441  and  _442
REMARK  187  A    between atoms: _441  and  _444
REMARK  188  A    between atoms: _444  and  _445
REMARK  189  A    between atoms: _445  and  _446
REMARK  190  A    between atoms: _448  and  _450
REMARK  191  A    between atoms: _450  and  _451
REMARK  192  A    between atoms: _450  and  _453
REMARK  193  A    between atoms: _453  and  _454
REMARK  194  A    between atoms: _458  and  _459
REMARK  195  A    between atoms: _464  and  _466
REMARK  196  A    between atoms: _466  and  _467
REMARK  197  A    between atoms: _466  and  _469
REMARK  198  A    between atoms: _469  and  _470
REMARK  199  A    between atoms: _473  and  _475
REMARK  200  A    between atoms: _475  and  _476
REMARK  201  A    between atoms: _475  and  _478
REMARK  202  A    between atoms: _478  and  _479
REMARK  203  A    between atoms: _484  and  _486
REMARK  204  A    between atoms: _486  and  _487
REMARK  205  A    between atoms: _486  and  _489
REMARK  206  A    between atoms: _489  and  _490
REMARK  207  A    between atoms: _493  and  _495
REMARK  208  A    between atoms: _495  and  _496
REMARK  209  A    between atoms: _495  and  _498
REMARK  210  A    between atoms: _498  and  _499
REMARK  211  A    between atoms: _505  and  _507
REMARK  212  A    between atoms: _507  and  _508
REMARK  213  A    between atoms: _510  and  _512
REMARK  214  A    between atoms: _512  and  _513
REMARK  215  A    between atoms: _512  and  _515
REMARK  216  A    between atoms: _515  and  _516
REMARK  217  A    between atoms: _516  and  _517
REMARK  218  A    between atoms: _517  and  _518
REMARK  219  A    between atoms: _527  and  _529
REMARK  220  A    between atoms: _529  and  _530
REMARK  221  A    between atoms: _529  and  _532
REMARK  222  A    between atoms: _532  and  _533
REMARK                            x       y       z     vdW  Elec       q    Type
REMARK                         _______ _______ _______ _____ _____    ______ ____
ROOT
ATOM      1  O   HOH     1      17.821   3.776  20.683  0.00  0.00    +0.000 OA
ENDROOT
TORSDOF 0
REMARK  Name = ../refined-set-2016/3s45/3s45_pocket.pdb
REMARK  222 active torsions:
REMARK  status: ('A' for Active; 'I' for Inactive)
REMARK    1  A    between atoms: _1  and  _3
REMARK    2  A    between atoms: _3  and  _4
REMARK    3  A    between atoms: _3  and  _6
REMARK    4  A    between atoms: _6  and  _7
REMARK    5  A    between atoms: _7  and  _8
REMARK    6  A    between atoms: _8  and  _9
REMARK    7  A    between atoms: _18  and  _20
REMARK    8  A    between atoms: _20  and  _21
REMARK    9  A    between atoms: _20  and  _23
REMARK   10  A    between atoms: _23  and  _24
REMARK   11  A    between atoms: _27  and  _29
REMARK   12  A    between atoms: _29  and  _30
REMARK   13  A    between atoms: _29  and  _32
REMARK   14  A    between atoms: _32  and  _33
REMARK   15  A    between atoms: _36  and  _38
REMARK   16  A    between atoms: _38  and  _39
REMARK   17  A    between atoms: _38  and  _41
REMARK   18  A    between atoms: _41  and  _42
REMARK   19  A    between atoms: _45  and  _47
REMARK   20  A    between atoms: _47  and  _48
REMARK   21  A    between atoms: _47  and  _50
REMARK   22  A    between atoms: _50  and  _51
REMARK   23  A    between atoms: _54  and  _56
REMARK   24  A    between atoms: _56  and  _57
REMARK   25  A    between atoms: _59  and  _61
REMARK   26  A    between atoms: _61  and  _62
REMARK   27  A    between atoms: _65  and  _67
REMARK   28  A    between atoms: _67  and  _68
REMARK   29  A    between atoms: _67  and  _70
REMARK   30  A    between atoms: _70  and  _71
REMARK   31  A    between atoms: _74  and  _76
REMARK   32  A    between atoms: _76  and  _77
REMARK   33  A    between atoms: _76  and  _79
REMARK   34  A    between atoms: _79  and  _80
REMARK   35  A    between atoms: _83  and  _85
REMARK   36  A    between atoms: _85  and  _86
REMARK   37  A    between atoms: _85  and  _88
REMARK   38  A    between atoms: _88  and  _89
REMARK   39  A    between atoms: _91  and  _93
REMARK   40  A    between atoms: _93  and  _94
REMARK   41  A    between atoms: _93  and  _96
REMARK   42  A    between atoms: _96  and  _97
REMARK   43  A    between atoms: _100  and  _102
REMARK   44  A    between atoms: _102  and  _103
REMARK   45  A    between atoms: _102  and  _105
REMARK   46  A    between atoms: _105  and  _106
REMARK   47  A    between atoms: _106  and  _107
REMARK   48  A    between atoms: _107  and  _108
REMARK   49  A    between atoms: _108  and  _109
REMARK   50  A    between atoms: _113  and  _115
REMARK   51  A    between atoms: _115  and  _116
REMARK   52  A    between atoms: _115  and  _118
REMARK   53  A    between atoms: _118  and  _119
REMARK   54  A    between atoms: _122  and  _124
REMARK   55  A    between atoms: _124  and  _125
REMARK   56  A    between atoms: _124  and  _127
REMARK   57  A    between atoms: _130  and  _132
REMARK   58  A    between atoms: _132  and  _133
REMARK   59  A    between atoms: _135  and  _137
REMARK   60  A    between atoms: _137  and  _138
REMARK   61  A    between atoms: _140  and  _142
REMARK   62  A    between atoms: _142  and  _143
REMARK   63  A    between atoms: _142  and  _145
REMARK   64  A    between atoms: _145  and  _146
REMARK   65  A    between atoms: _149  and  _151
REMARK   66  A    between atoms: _151  and  _152
REMARK   67  A    between atoms: _154  and  _156
REMARK   68  A    between atoms: _156  and  _157
REMARK   69  A    between atoms: _159  and  _161
REMARK   70  A    between atoms: _161  and  _162
REMARK   71  A    between atoms: _161  and  _164
REMARK   72  A    between atoms: _164  and  _165
REMARK   73  A    between atoms: _168  and  _170
REMARK   74  A    between atoms: _170  and  _171
REMARK   75  A    between atoms: _170  and  _173
REMARK   76  A    between atoms: _173  and  _174
REMARK   77  A    between atoms: _177  and  _179
REMARK   78  A    between atoms: _179  and  _180
REMARK   79  A    between atoms: _179  and  _182
REMARK   80  A    between atoms: _182  and  _183
REMARK   81  A    between atoms: _183  and  _184
REMARK   82  A    between atoms: _186  and  _188
REMARK   83  A    between atoms: _188  and  _189
REMARK   84  A    between atoms: _188  and  _191
REMARK   85  A    between atoms: _191  and  _192
REMARK   86  A    between atoms: _196  and  _197
REMARK   87  A    between atoms: _202  and  _204
REMARK   88  A    between atoms: _204  and  _205
REMARK   89  A    between atoms: _204  and  _207
REMARK   90  A    between atoms: _207  and  _208
REMARK   91  A    between atoms: _211  and  _213
REMARK   92  A    between atoms: _213  and  _214
REMARK   93  A    between atoms: _213  and  _216
REMARK   94  A    between atoms: _216  and  _217
REMARK   95  A    between atoms: _222  and  _224
REMARK   96  A    between atoms: _224  and  _225
REMARK   97  A    between atoms: _224  and  _227
REMARK   98  A    between atoms: _227  and  _228
REMARK   99  A    between atoms: _231  and  _233
REMARK  100  A    between atoms: _233  and  _234
REMARK  101  A    between atoms: _233  and  _236
REMARK  102  A    between atoms: _236  and  _237
REMARK  103  A    between atoms: _243  and  _245
REMARK  104  A    between atoms: _245  and  _246
REMARK  105  A    between atoms: _248  and  _250
REMARK  106  A    between atoms: _250  and  _251
REMARK  107  A    between atoms: _250  and  _253
REMARK  108  A    between atoms: _253  and  _254
REMARK  109  A    between atoms: _254  and  _255
REMARK  110  A    between atoms: _255  and  _256
REMARK  111  A    between atoms: _265  and  _267
REMARK  112  A    between atoms: _267  and  _268
REMARK  113  A    between atoms: _267  and  _270
REMARK  114  A    between atoms: _270  and  _271
REMARK  115  A    between atoms: _276  and  _278
REMARK  116  A    between atoms: _278  and  _279
REMARK  117  A    between atoms: _278  and  _281
REMARK  118  A    between atoms: _281  and  _282
REMARK  119  A    between atoms: _282  and  _283
REMARK  120  A    between atoms: _283  and  _284
REMARK  121  A    between atoms: _293  and  _295
REMARK  122  A    between atoms: _295  and  _296
REMARK  123  A    between atoms: _295  and  _298
REMARK  124  A    between atoms: _298  and  _299
REMARK  125  A    between atoms: _302  and  _304
REMARK  126  A    between atoms: _304  and  _305
REMARK  127  A    between atoms: _304  and  _307
REMARK  128  A    between atoms: _307  and  _308
REMARK  129  A    between atoms: _311  and  _313
REMARK  130  A    between atoms: _313  and  _314
REMARK  131  A    between atoms: _313  and  _316
REMARK  132  A    between atoms: _316  and  _317
REMARK  133  A    between atoms: _320  and  _322
REMARK  134  A    between atoms: _322  and  _323
REMARK  135  A    between atoms: _322  and  _325
REMARK  136  A    between atoms: _325  and  _326
REMARK  137  A    between atoms: _329  and  _331
REMARK  138  A    between atoms: _331  and  _332
REMARK  139  A    between atoms: _334  and  _336
REMARK  140  A    between atoms: _336  and  _337
REMARK  141  A    between atoms: _340  and  _342
REMARK  142  A    between atoms: _342  and  _343
REMARK  143  A    between atoms: _342  and  _345
REMARK  144  A    between atoms: _345  and  _346
REMARK  145  A    between atoms: _349  and  _351
REMARK  146  A    between atoms: _351  and  _352
REMARK  147  A    between atoms: _351  and  _354
REMARK  148  A    between atoms: _354  and  _355
REMARK  149  A    between atoms: _355  and  _357
REMARK  150  A    between atoms: _358  and  _360
REMARK  151  A    between atoms: _360  and  _361
REMARK  152  A    between atoms: _360  and  _363
REMARK  153  A    between atoms: _363  and  _364
REMARK  154  A    between atoms: _366  and  _368
REMARK  155  A    between atoms: _368  and  _369
REMARK  156  A    between atoms: _368  and  _371
REMARK  157  A    between atoms: _371  and  _372
REMARK  158  A    between atoms: _375  and  _377
REMARK  159  A    between atoms: _377  and  _378
REMARK  160  A    between atoms: _377  and  _380
REMARK  161  A    between atoms: _380  and  _381
REMARK  162  A    between atoms: _384  and  _386
REMARK  163  A    between atoms: _386  and  _387
REMARK  164  A    between atoms: _386  and  _389
REMARK  165  A    between atoms: _392  and  _394
REMARK  166  A    between atoms: _394  and  _395
REMARK  167  A    between atoms: _397  and  _399
REMARK  168  A    between atoms: _399  and  _400
REMARK  169  A    between atoms: _402  and  _404
REMARK  170  A    between atoms: _404  and  _405
REMARK  171  A    between atoms: _404  and  _407
REMARK  172  A    between atoms: _407  and  _408
REMARK  173  A    between atoms: _411  and  _413
REMARK  174  A    between atoms: _413  and  _414
REMARK  175  A    between atoms: _416  and  _418
REMARK  176  A    between atoms: _418  and  _419
REMARK  177  A    between atoms: _421  and  _423
REMARK  178  A    between atoms: _423  and  _424
REMARK  179  A    between atoms: _423  and  _426
REMARK  180  A    between atoms: _426  and  _427
REMARK  181  A    between atoms: _430  and  _432
REMARK  182  A    between atoms: _432  and  _433
REMARK  183  A    between atoms: _432  and  _435
REMARK  184  A    between atoms: _435  and  _436
REMARK  185  A    between atoms: _439  and  _441
REMARK  186  A    between atoms: _441  and  _442
REMARK  187  A    between atoms: _441  and  _444
REMARK  188  A    between atoms: _444  and  _445
REMARK  189  A    between atoms: _445  and  _446
REMARK  190  A    between atoms: _448  and  _450
REMARK  191  A    between atoms: _450  and  _451
REMARK  192  A    between atoms: _450  and  _453
REMARK  193  A    between atoms: _453  and  _454
REMARK  194  A    between atoms: _458  and  _459
REMARK  195  A    between atoms: _464  and  _466
REMARK  196  A    between atoms: _466  and  _467
REMARK  197  A    between atoms: _466  and  _469
REMARK  198  A    between atoms: _469  and  _470
REMARK  199  A    between atoms: _473  and  _475
REMARK  200  A    between atoms: _475  and  _476
REMARK  201  A    between atoms: _475  and  _478
REMARK  202  A    between atoms: _478  and  _479
REMARK  203  A    between atoms: _484  and  _486
REMARK  204  A    between atoms: _486  and  _487
REMARK  205  A    between atoms: _486  and  _489
REMARK  206  A    between atoms: _489  and  _490
REMARK  207  A    between atoms: _493  and  _495
REMARK  208  A    between atoms: _495  and  _496
REMARK  209  A    between atoms: _495  and  _498
REMARK  210  A    between atoms: _498  and  _499
REMARK  211  A    between atoms: _505  and  _507
REMARK  212  A    between atoms: _507  and  _508
REMARK  213  A    between atoms: _510  and  _512
REMARK  214  A    between atoms: _512  and  _513
REMARK  215  A    between atoms: _512  and  _515
REMARK  216  A    between atoms: _515  and  _516
REMARK  217  A    between atoms: _516  and  _517
REMARK  218  A    between atoms: _517  and  _518
REMARK  219  A    between atoms: _527  and  _529
REMARK  220  A    between atoms: _529  and  _530
REMARK  221  A    between atoms: _529  and  _532
REMARK  222  A    between atoms: _532  and  _533
REMARK                            x       y       z     vdW  Elec       q    Type
REMARK                         _______ _______ _______ _____ _____    ______ ____
ROOT
ATOM      1  O   HOH     1       8.731   3.969  17.386  0.00  0.00    +0.000 OA
ENDROOT
TORSDOF 0
REMARK  Name = ../refined-set-2016/3s45/3s45_pocket.pdb
REMARK  222 active torsions:
REMARK  status: ('A' for Active; 'I' for Inactive)
REMARK    1  A    between atoms: _1  and  _3
REMARK    2  A    between atoms: _3  and  _4
REMARK    3  A    between atoms: _3  and  _6
REMARK    4  A    between atoms: _6  and  _7
REMARK    5  A    between atoms: _7  and  _8
REMARK    6  A    between atoms: _8  and  _9
REMARK    7  A    between atoms: _18  and  _20
REMARK    8  A    between atoms: _20  and  _21
REMARK    9  A    between atoms: _20  and  _23
REMARK   10  A    between atoms: _23  and  _24
REMARK   11  A    between atoms: _27  and  _29
REMARK   12  A    between atoms: _29  and  _30
REMARK   13  A    between atoms: _29  and  _32
REMARK   14  A    between atoms: _32  and  _33
REMARK   15  A    between atoms: _36  and  _38
REMARK   16  A    between atoms: _38  and  _39
REMARK   17  A    between atoms: _38  and  _41
REMARK   18  A    between atoms: _41  and  _42
REMARK   19  A    between atoms: _45  and  _47
REMARK   20  A    between atoms: _47  and  _48
REMARK   21  A    between atoms: _47  and  _50
REMARK   22  A    between atoms: _50  and  _51
REMARK   23  A    between atoms: _54  and  _56
REMARK   24  A    between atoms: _56  and  _57
REMARK   25  A    between atoms: _59  and  _61
REMARK   26  A    between atoms: _61  and  _62
REMARK   27  A    between atoms: _65  and  _67
REMARK   28  A    between atoms: _67  and  _68
REMARK   29  A    between atoms: _67  and  _70
REMARK   30  A    between atoms: _70  and  _71
REMARK   31  A    between atoms: _74  and  _76
REMARK   32  A    between atoms: _76  and  _77
REMARK   33  A    between atoms: _76  and  _79
REMARK   34  A    between atoms: _79  and  _80
REMARK   35  A    between atoms: _83  and  _85
REMARK   36  A    between atoms: _85  and  _86
REMARK   37  A    between atoms: _85  and  _88
REMARK   38  A    between atoms: _88  and  _89
REMARK   39  A    between atoms: _91  and  _93
REMARK   40  A    between atoms: _93  and  _94
REMARK   41  A    between atoms: _93  and  _96
REMARK   42  A    between atoms: _96  and  _97
REMARK   43  A    between atoms: _100  and  _102
REMARK   44  A    between atoms: _102  and  _103
REMARK   45  A    between atoms: _102  and  _105
REMARK   46  A    between atoms: _105  and  _106
REMARK   47  A    between atoms: _106  and  _107
REMARK   48  A    between atoms: _107  and  _108
REMARK   49  A    between atoms: _108  and  _109
REMARK   50  A    between atoms: _113  and  _115
REMARK   51  A    between atoms: _115  and  _116
REMARK   52  A    between atoms: _115  and  _118
REMARK   53  A    between atoms: _118  and  _119
REMARK   54  A    between atoms: _122  and  _124
REMARK   55  A    between atoms: _124  and  _125
REMARK   56  A    between atoms: _124  and  _127
REMARK   57  A    between atoms: _130  and  _132
REMARK   58  A    between atoms: _132  and  _133
REMARK   59  A    between atoms: _135  and  _137
REMARK   60  A    between atoms: _137  and  _138
REMARK   61  A    between atoms: _140  and  _142
REMARK   62  A    between atoms: _142  and  _143
REMARK   63  A    between atoms: _142  and  _145
REMARK   64  A    between atoms: _145  and  _146
REMARK   65  A    between atoms: _149  and  _151
REMARK   66  A    between atoms: _151  and  _152
REMARK   67  A    between atoms: _154  and  _156
REMARK   68  A    between atoms: _156  and  _157
REMARK   69  A    between atoms: _159  and  _161
REMARK   70  A    between atoms: _161  and  _162
REMARK   71  A    between atoms: _161  and  _164
REMARK   72  A    between atoms: _164  and  _165
REMARK   73  A    between atoms: _168  and  _170
REMARK   74  A    between atoms: _170  and  _171
REMARK   75  A    between atoms: _170  and  _173
REMARK   76  A    between atoms: _173  and  _174
REMARK   77  A    between atoms: _177  and  _179
REMARK   78  A    between atoms: _179  and  _180
REMARK   79  A    between atoms: _179  and  _182
REMARK   80  A    between atoms: _182  and  _183
REMARK   81  A    between atoms: _183  and  _184
REMARK   82  A    between atoms: _186  and  _188
REMARK   83  A    between atoms: _188  and  _189
REMARK   84  A    between atoms: _188  and  _191
REMARK   85  A    between atoms: _191  and  _192
REMARK   86  A    between atoms: _196  and  _197
REMARK   87  A    between atoms: _202  and  _204
REMARK   88  A    between atoms: _204  and  _205
REMARK   89  A    between atoms: _204  and  _207
REMARK   90  A    between atoms: _207  and  _208
REMARK   91  A    between atoms: _211  and  _213
REMARK   92  A    between atoms: _213  and  _214
REMARK   93  A    between atoms: _213  and  _216
REMARK   94  A    between atoms: _216  and  _217
REMARK   95  A    between atoms: _222  and  _224
REMARK   96  A    between atoms: _224  and  _225
REMARK   97  A    between atoms: _224  and  _227
REMARK   98  A    between atoms: _227  and  _228
REMARK   99  A    between atoms: _231  and  _233
REMARK  100  A    between atoms: _233  and  _234
REMARK  101  A    between atoms: _233  and  _236
REMARK  102  A    between atoms: _236  and  _237
REMARK  103  A    between atoms: _243  and  _245
REMARK  104  A    between atoms: _245  and  _246
REMARK  105  A    between atoms: _248  and  _250
REMARK  106  A    between atoms: _250  and  _251
REMARK  107  A    between atoms: _250  and  _253
REMARK  108  A    between atoms: _253  and  _254
REMARK  109  A    between atoms: _254  and  _255
REMARK  110  A    between atoms: _255  and  _256
REMARK  111  A    between atoms: _265  and  _267
REMARK  112  A    between atoms: _267  and  _268
REMARK  113  A    between atoms: _267  and  _270
REMARK  114  A    between atoms: _270  and  _271
REMARK  115  A    between atoms: _276  and  _278
REMARK  116  A    between atoms: _278  and  _279
REMARK  117  A    between atoms: _278  and  _281
REMARK  118  A    between atoms: _281  and  _282
REMARK  119  A    between atoms: _282  and  _283
REMARK  120  A    between atoms: _283  and  _284
REMARK  121  A    between atoms: _293  and  _295
REMARK  122  A    between atoms: _295  and  _296
REMARK  123  A    between atoms: _295  and  _298
REMARK  124  A    between atoms: _298  and  _299
REMARK  125  A    between atoms: _302  and  _304
REMARK  126  A    between atoms: _304  and  _305
REMARK  127  A    between atoms: _304  and  _307
REMARK  128  A    between atoms: _307  and  _308
REMARK  129  A    between atoms: _311  and  _313
REMARK  130  A    between atoms: _313  and  _314
REMARK  131  A    between atoms: _313  and  _316
REMARK  132  A    between atoms: _316  and  _317
REMARK  133  A    between atoms: _320  and  _322
REMARK  134  A    between atoms: _322  and  _323
REMARK  135  A    between atoms: _322  and  _325
REMARK  136  A    between atoms: _325  and  _326
REMARK  137  A    between atoms: _329  and  _331
REMARK  138  A    between atoms: _331  and  _332
REMARK  139  A    between atoms: _334  and  _336
REMARK  140  A    between atoms: _336  and  _337
REMARK  141  A    between atoms: _340  and  _342
REMARK  142  A    between atoms: _342  and  _343
REMARK  143  A    between atoms: _342  and  _345
REMARK  144  A    between atoms: _345  and  _346
REMARK  145  A    between atoms: _349  and  _351
REMARK  146  A    between atoms: _351  and  _352
REMARK  147  A    between atoms: _351  and  _354
REMARK  148  A    between atoms: _354  and  _355
REMARK  149  A    between atoms: _355  and  _357
REMARK  150  A    between atoms: _358  and  _360
REMARK  151  A    between atoms: _360  and  _361
REMARK  152  A    between atoms: _360  and  _363
REMARK  153  A    between atoms: _363  and  _364
REMARK  154  A    between atoms: _366  and  _368
REMARK  155  A    between atoms: _368  and  _369
REMARK  156  A    between atoms: _368  and  _371
REMARK  157  A    between atoms: _371  and  _372
REMARK  158  A    between atoms: _375  and  _377
REMARK  159  A    between atoms: _377  and  _378
REMARK  160  A    between atoms: _377  and  _380
REMARK  161  A    between atoms: _380  and  _381
REMARK  162  A    between atoms: _384  and  _386
REMARK  163  A    between atoms: _386  and  _387
REMARK  164  A    between atoms: _386  and  _389
REMARK  165  A    between atoms: _392  and  _394
REMARK  166  A    between atoms: _394  and  _395
REMARK  167  A    between atoms: _397  and  _399
REMARK  168  A    between atoms: _399  and  _400
REMARK  169  A    between atoms: _402  and  _404
REMARK  170  A    between atoms: _404  and  _405
REMARK  171  A    between atoms: _404  and  _407
REMARK  172  A    between atoms: _407  and  _408
REMARK  173  A    between atoms: _411  and  _413
REMARK  174  A    between atoms: _413  and  _414
REMARK  175  A    between atoms: _416  and  _418
REMARK  176  A    between atoms: _418  and  _419
REMARK  177  A    between atoms: _421  and  _423
REMARK  178  A    between atoms: _423  and  _424
REMARK  179  A    between atoms: _423  and  _426
REMARK  180  A    between atoms: _426  and  _427
REMARK  181  A    between atoms: _430  and  _432
REMARK  182  A    between atoms: _432  and  _433
REMARK  183  A    between atoms: _432  and  _435
REMARK  184  A    between atoms: _435  and  _436
REMARK  185  A    between atoms: _439  and  _441
REMARK  186  A    between atoms: _441  and  _442
REMARK  187  A    between atoms: _441  and  _444
REMARK  188  A    between atoms: _444  and  _445
REMARK  189  A    between atoms: _445  and  _446
REMARK  190  A    between atoms: _448  and  _450
REMARK  191  A    between atoms: _450  and  _451
REMARK  192  A    between atoms: _450  and  _453
REMARK  193  A    between atoms: _453  and  _454
REMARK  194  A    between atoms: _458  and  _459
REMARK  195  A    between atoms: _464  and  _466
REMARK  196  A    between atoms: _466  and  _467
REMARK  197  A    between atoms: _466  and  _469
REMARK  198  A    between atoms: _469  and  _470
REMARK  199  A    between atoms: _473  and  _475
REMARK  200  A    between atoms: _475  and  _476
REMARK  201  A    between atoms: _475  and  _478
REMARK  202  A    between atoms: _478  and  _479
REMARK  203  A    between atoms: _484  and  _486
REMARK  204  A    between atoms: _486  and  _487
REMARK  205  A    between atoms: _486  and  _489
REMARK  206  A    between atoms: _489  and  _490
REMARK  207  A    between atoms: _493  and  _495
REMARK  208  A    between atoms: _495  and  _496
REMARK  209  A    between atoms: _495  and  _498
REMARK  210  A    between atoms: _498  and  _499
REMARK  211  A    between atoms: _505  and  _507
REMARK  212  A    between atoms: _507  and  _508
REMARK  213  A    between atoms: _510  and  _512
REMARK  214  A    between atoms: _512  and  _513
REMARK  215  A    between atoms: _512  and  _515
REMARK  216  A    between atoms: _515  and  _516
REMARK  217  A    between atoms: _516  and  _517
REMARK  218  A    between atoms: _517  and  _518
REMARK  219  A    between atoms: _527  and  _529
REMARK  220  A    between atoms: _529  and  _530
REMARK  221  A    between atoms: _529  and  _532
REMARK  222  A    between atoms: _532  and  _533
REMARK                            x       y       z     vdW  Elec       q    Type
REMARK                         _______ _______ _______ _____ _____    ______ ____
ROOT
ATOM      1  O   HOH     1      20.784  12.333  20.564  0.00  0.00    +0.000 OA
ENDROOT
TORSDOF 0
REMARK  Name = ../refined-set-2016/3s45/3s45_pocket.pdb
REMARK  222 active torsions:
REMARK  status: ('A' for Active; 'I' for Inactive)
REMARK    1  A    between atoms: _1  and  _3
REMARK    2  A    between atoms: _3  and  _4
REMARK    3  A    between atoms: _3  and  _6
REMARK    4  A    between atoms: _6  and  _7
REMARK    5  A    between atoms: _7  and  _8
REMARK    6  A    between atoms: _8  and  _9
REMARK    7  A    between atoms: _18  and  _20
REMARK    8  A    between atoms: _20  and  _21
REMARK    9  A    between atoms: _20  and  _23
REMARK   10  A    between atoms: _23  and  _24
REMARK   11  A    between atoms: _27  and  _29
REMARK   12  A    between atoms: _29  and  _30
REMARK   13  A    between atoms: _29  and  _32
REMARK   14  A    between atoms: _32  and  _33
REMARK   15  A    between atoms: _36  and  _38
REMARK   16  A    between atoms: _38  and  _39
REMARK   17  A    between atoms: _38  and  _41
REMARK   18  A    between atoms: _41  and  _42
REMARK   19  A    between atoms: _45  and  _47
REMARK   20  A    between atoms: _47  and  _48
REMARK   21  A    between atoms: _47  and  _50
REMARK   22  A    between atoms: _50  and  _51
REMARK   23  A    between atoms: _54  and  _56
REMARK   24  A    between atoms: _56  and  _57
REMARK   25  A    between atoms: _59  and  _61
REMARK   26  A    between atoms: _61  and  _62
REMARK   27  A    between atoms: _65  and  _67
REMARK   28  A    between atoms: _67  and  _68
REMARK   29  A    between atoms: _67  and  _70
REMARK   30  A    between atoms: _70  and  _71
REMARK   31  A    between atoms: _74  and  _76
REMARK   32  A    between atoms: _76  and  _77
REMARK   33  A    between atoms: _76  and  _79
REMARK   34  A    between atoms: _79  and  _80
REMARK   35  A    between atoms: _83  and  _85
REMARK   36  A    between atoms: _85  and  _86
REMARK   37  A    between atoms: _85  and  _88
REMARK   38  A    between atoms: _88  and  _89
REMARK   39  A    between atoms: _91  and  _93
REMARK   40  A    between atoms: _93  and  _94
REMARK   41  A    between atoms: _93  and  _96
REMARK   42  A    between atoms: _96  and  _97
REMARK   43  A    between atoms: _100  and  _102
REMARK   44  A    between atoms: _102  and  _103
REMARK   45  A    between atoms: _102  and  _105
REMARK   46  A    between atoms: _105  and  _106
REMARK   47  A    between atoms: _106  and  _107
REMARK   48  A    between atoms: _107  and  _108
REMARK   49  A    between atoms: _108  and  _109
REMARK   50  A    between atoms: _113  and  _115
REMARK   51  A    between atoms: _115  and  _116
REMARK   52  A    between atoms: _115  and  _118
REMARK   53  A    between atoms: _118  and  _119
REMARK   54  A    between atoms: _122  and  _124
REMARK   55  A    between atoms: _124  and  _125
REMARK   56  A    between atoms: _124  and  _127
REMARK   57  A    between atoms: _130  and  _132
REMARK   58  A    between atoms: _132  and  _133
REMARK   59  A    between atoms: _135  and  _137
REMARK   60  A    between atoms: _137  and  _138
REMARK   61  A    between atoms: _140  and  _142
REMARK   62  A    between atoms: _142  and  _143
REMARK   63  A    between atoms: _142  and  _145
REMARK   64  A    between atoms: _145  and  _146
REMARK   65  A    between atoms: _149  and  _151
REMARK   66  A    between atoms: _151  and  _152
REMARK   67  A    between atoms: _154  and  _156
REMARK   68  A    between atoms: _156  and  _157
REMARK   69  A    between atoms: _159  and  _161
REMARK   70  A    between atoms: _161  and  _162
REMARK   71  A    between atoms: _161  and  _164
REMARK   72  A    between atoms: _164  and  _165
REMARK   73  A    between atoms: _168  and  _170
REMARK   74  A    between atoms: _170  and  _171
REMARK   75  A    between atoms: _170  and  _173
REMARK   76  A    between atoms: _173  and  _174
REMARK   77  A    between atoms: _177  and  _179
REMARK   78  A    between atoms: _179  and  _180
REMARK   79  A    between atoms: _179  and  _182
REMARK   80  A    between atoms: _182  and  _183
REMARK   81  A    between atoms: _183  and  _184
REMARK   82  A    between atoms: _186  and  _188
REMARK   83  A    between atoms: _188  and  _189
REMARK   84  A    between atoms: _188  and  _191
REMARK   85  A    between atoms: _191  and  _192
REMARK   86  A    between atoms: _196  and  _197
REMARK   87  A    between atoms: _202  and  _204
REMARK   88  A    between atoms: _204  and  _205
REMARK   89  A    between atoms: _204  and  _207
REMARK   90  A    between atoms: _207  and  _208
REMARK   91  A    between atoms: _211  and  _213
REMARK   92  A    between atoms: _213  and  _214
REMARK   93  A    between atoms: _213  and  _216
REMARK   94  A    between atoms: _216  and  _217
REMARK   95  A    between atoms: _222  and  _224
REMARK   96  A    between atoms: _224  and  _225
REMARK   97  A    between atoms: _224  and  _227
REMARK   98  A    between atoms: _227  and  _228
REMARK   99  A    between atoms: _231  and  _233
REMARK  100  A    between atoms: _233  and  _234
REMARK  101  A    between atoms: _233  and  _236
REMARK  102  A    between atoms: _236  and  _237
REMARK  103  A    between atoms: _243  and  _245
REMARK  104  A    between atoms: _245  and  _246
REMARK  105  A    between atoms: _248  and  _250
REMARK  106  A    between atoms: _250  and  _251
REMARK  107  A    between atoms: _250  and  _253
REMARK  108  A    between atoms: _253  and  _254
REMARK  109  A    between atoms: _254  and  _255
REMARK  110  A    between atoms: _255  and  _256
REMARK  111  A    between atoms: _265  and  _267
REMARK  112  A    between atoms: _267  and  _268
REMARK  113  A    between atoms: _267  and  _270
REMARK  114  A    between atoms: _270  and  _271
REMARK  115  A    between atoms: _276  and  _278
REMARK  116  A    between atoms: _278  and  _279
REMARK  117  A    between atoms: _278  and  _281
REMARK  118  A    between atoms: _281  and  _282
REMARK  119  A    between atoms: _282  and  _283
REMARK  120  A    between atoms: _283  and  _284
REMARK  121  A    between atoms: _293  and  _295
REMARK  122  A    between atoms: _295  and  _296
REMARK  123  A    between atoms: _295  and  _298
REMARK  124  A    between atoms: _298  and  _299
REMARK  125  A    between atoms: _302  and  _304
REMARK  126  A    between atoms: _304  and  _305
REMARK  127  A    between atoms: _304  and  _307
REMARK  128  A    between atoms: _307  and  _308
REMARK  129  A    between atoms: _311  and  _313
REMARK  130  A    between atoms: _313  and  _314
REMARK  131  A    between atoms: _313  and  _316
REMARK  132  A    between atoms: _316  and  _317
REMARK  133  A    between atoms: _320  and  _322
REMARK  134  A    between atoms: _322  and  _323
REMARK  135  A    between atoms: _322  and  _325
REMARK  136  A    between atoms: _325  and  _326
REMARK  137  A    between atoms: _329  and  _331
REMARK  138  A    between atoms: _331  and  _332
REMARK  139  A    between atoms: _334  and  _336
REMARK  140  A    between atoms: _336  and  _337
REMARK  141  A    between atoms: _340  and  _342
REMARK  142  A    between atoms: _342  and  _343
REMARK  143  A    between atoms: _342  and  _345
REMARK  144  A    between atoms: _345  and  _346
REMARK  145  A    between atoms: _349  and  _351
REMARK  146  A    between atoms: _351  and  _352
REMARK  147  A    between atoms: _351  and  _354
REMARK  148  A    between atoms: _354  and  _355
REMARK  149  A    between atoms: _355  and  _357
REMARK  150  A    between atoms: _358  and  _360
REMARK  151  A    between atoms: _360  and  _361
REMARK  152  A    between atoms: _360  and  _363
REMARK  153  A    between atoms: _363  and  _364
REMARK  154  A    between atoms: _366  and  _368
REMARK  155  A    between atoms: _368  and  _369
REMARK  156  A    between atoms: _368  and  _371
REMARK  157  A    between atoms: _371  and  _372
REMARK  158  A    between atoms: _375  and  _377
REMARK  159  A    between atoms: _377  and  _378
REMARK  160  A    between atoms: _377  and  _380
REMARK  161  A    between atoms: _380  and  _381
REMARK  162  A    between atoms: _384  and  _386
REMARK  163  A    between atoms: _386  and  _387
REMARK  164  A    between atoms: _386  and  _389
REMARK  165  A    between atoms: _392  and  _394
REMARK  166  A    between atoms: _394  and  _395
REMARK  167  A    between atoms: _397  and  _399
REMARK  168  A    between atoms: _399  and  _400
REMARK  169  A    between atoms: _402  and  _404
REMARK  170  A    between atoms: _404  and  _405
REMARK  171  A    between atoms: _404  and  _407
REMARK  172  A    between atoms: _407  and  _408
REMARK  173  A    between atoms: _411  and  _413
REMARK  174  A    between atoms: _413  and  _414
REMARK  175  A    between atoms: _416  and  _418
REMARK  176  A    between atoms: _418  and  _419
REMARK  177  A    between atoms: _421  and  _423
REMARK  178  A    between atoms: _423  and  _424
REMARK  179  A    between atoms: _423  and  _426
REMARK  180  A    between atoms: _426  and  _427
REMARK  181  A    between atoms: _430  and  _432
REMARK  182  A    between atoms: _432  and  _433
REMARK  183  A    between atoms: _432  and  _435
REMARK  184  A    between atoms: _435  and  _436
REMARK  185  A    between atoms: _439  and  _441
REMARK  186  A    between atoms: _441  and  _442
REMARK  187  A    between atoms: _441  and  _444
REMARK  188  A    between atoms: _444  and  _445
REMARK  189  A    between atoms: _445  and  _446
REMARK  190  A    between atoms: _448  and  _450
REMARK  191  A    between atoms: _450  and  _451
REMARK  192  A    between atoms: _450  and  _453
REMARK  193  A    between atoms: _453  and  _454
REMARK  194  A    between atoms: _458  and  _459
REMARK  195  A    between atoms: _464  and  _466
REMARK  196  A    between atoms: _466  and  _467
REMARK  197  A    between atoms: _466  and  _469
REMARK  198  A    between atoms: _469  and  _470
REMARK  199  A    between atoms: _473  and  _475
REMARK  200  A    between atoms: _475  and  _476
REMARK  201  A    between atoms: _475  and  _478
REMARK  202  A    between atoms: _478  and  _479
REMARK  203  A    between atoms: _484  and  _486
REMARK  204  A    between atoms: _486  and  _487
REMARK  205  A    between atoms: _486  and  _489
REMARK  206  A    between atoms: _489  and  _490
REMARK  207  A    between atoms: _493  and  _495
REMARK  208  A    between atoms: _495  and  _496
REMARK  209  A    between atoms: _495  and  _498
REMARK  210  A    between atoms: _498  and  _499
REMARK  211  A    between atoms: _505  and  _507
REMARK  212  A    between atoms: _507  and  _508
REMARK  213  A    between atoms: _510  and  _512
REMARK  214  A    between atoms: _512  and  _513
REMARK  215  A    between atoms: _512  and  _515
REMARK  216  A    between atoms: _515  and  _516
REMARK  217  A    between atoms: _516  and  _517
REMARK  218  A    between atoms: _517  and  _518
REMARK  219  A    between atoms: _527  and  _529
REMARK  220  A    between atoms: _529  and  _530
REMARK  221  A    between atoms: _529  and  _532
REMARK  222  A    between atoms: _532  and  _533
REMARK                            x       y       z     vdW  Elec       q    Type
REMARK                         _______ _______ _______ _____ _____    ______ ____
ROOT
ATOM      1  O   HOH     1      22.928   3.860  27.644  0.00  0.00    +0.000 OA
ENDROOT
TORSDOF 0
REMARK  Name = ../refined-set-2016/3s45/3s45_pocket.pdb
REMARK  222 active torsions:
REMARK  status: ('A' for Active; 'I' for Inactive)
REMARK    1  A    between atoms: _1  and  _3
REMARK    2  A    between atoms: _3  and  _4
REMARK    3  A    between atoms: _3  and  _6
REMARK    4  A    between atoms: _6  and  _7
REMARK    5  A    between atoms: _7  and  _8
REMARK    6  A    between atoms: _8  and  _9
REMARK    7  A    between atoms: _18  and  _20
REMARK    8  A    between atoms: _20  and  _21
REMARK    9  A    between atoms: _20  and  _23
REMARK   10  A    between atoms: _23  and  _24
REMARK   11  A    between atoms: _27  and  _29
REMARK   12  A    between atoms: _29  and  _30
REMARK   13  A    between atoms: _29  and  _32
REMARK   14  A    between atoms: _32  and  _33
REMARK   15  A    between atoms: _36  and  _38
REMARK   16  A    between atoms: _38  and  _39
REMARK   17  A    between atoms: _38  and  _41
REMARK   18  A    between atoms: _41  and  _42
REMARK   19  A    between atoms: _45  and  _47
REMARK   20  A    between atoms: _47  and  _48
REMARK   21  A    between atoms: _47  and  _50
REMARK   22  A    between atoms: _50  and  _51
REMARK   23  A    between atoms: _54  and  _56
REMARK   24  A    between atoms: _56  and  _57
REMARK   25  A    between atoms: _59  and  _61
REMARK   26  A    between atoms: _61  and  _62
REMARK   27  A    between atoms: _65  and  _67
REMARK   28  A    between atoms: _67  and  _68
REMARK   29  A    between atoms: _67  and  _70
REMARK   30  A    between atoms: _70  and  _71
REMARK   31  A    between atoms: _74  and  _76
REMARK   32  A    between atoms: _76  and  _77
REMARK   33  A    between atoms: _76  and  _79
REMARK   34  A    between atoms: _79  and  _80
REMARK   35  A    between atoms: _83  and  _85
REMARK   36  A    between atoms: _85  and  _86
REMARK   37  A    between atoms: _85  and  _88
REMARK   38  A    between atoms: _88  and  _89
REMARK   39  A    between atoms: _91  and  _93
REMARK   40  A    between atoms: _93  and  _94
REMARK   41  A    between atoms: _93  and  _96
REMARK   42  A    between atoms: _96  and  _97
REMARK   43  A    between atoms: _100  and  _102
REMARK   44  A    between atoms: _102  and  _103
REMARK   45  A    between atoms: _102  and  _105
REMARK   46  A    between atoms: _105  and  _106
REMARK   47  A    between atoms: _106  and  _107
REMARK   48  A    between atoms: _107  and  _108
REMARK   49  A    between atoms: _108  and  _109
REMARK   50  A    between atoms: _113  and  _115
REMARK   51  A    between atoms: _115  and  _116
REMARK   52  A    between atoms: _115  and  _118
REMARK   53  A    between atoms: _118  and  _119
REMARK   54  A    between atoms: _122  and  _124
REMARK   55  A    between atoms: _124  and  _125
REMARK   56  A    between atoms: _124  and  _127
REMARK   57  A    between atoms: _130  and  _132
REMARK   58  A    between atoms: _132  and  _133
REMARK   59  A    between atoms: _135  and  _137
REMARK   60  A    between atoms: _137  and  _138
REMARK   61  A    between atoms: _140  and  _142
REMARK   62  A    between atoms: _142  and  _143
REMARK   63  A    between atoms: _142  and  _145
REMARK   64  A    between atoms: _145  and  _146
REMARK   65  A    between atoms: _149  and  _151
REMARK   66  A    between atoms: _151  and  _152
REMARK   67  A    between atoms: _154  and  _156
REMARK   68  A    between atoms: _156  and  _157
REMARK   69  A    between atoms: _159  and  _161
REMARK   70  A    between atoms: _161  and  _162
REMARK   71  A    between atoms: _161  and  _164
REMARK   72  A    between atoms: _164  and  _165
REMARK   73  A    between atoms: _168  and  _170
REMARK   74  A    between atoms: _170  and  _171
REMARK   75  A    between atoms: _170  and  _173
REMARK   76  A    between atoms: _173  and  _174
REMARK   77  A    between atoms: _177  and  _179
REMARK   78  A    between atoms: _179  and  _180
REMARK   79  A    between atoms: _179  and  _182
REMARK   80  A    between atoms: _182  and  _183
REMARK   81  A    between atoms: _183  and  _184
REMARK   82  A    between atoms: _186  and  _188
REMARK   83  A    between atoms: _188  and  _189
REMARK   84  A    between atoms: _188  and  _191
REMARK   85  A    between atoms: _191  and  _192
REMARK   86  A    between atoms: _196  and  _197
REMARK   87  A    between atoms: _202  and  _204
REMARK   88  A    between atoms: _204  and  _205
REMARK   89  A    between atoms: _204  and  _207
REMARK   90  A    between atoms: _207  and  _208
REMARK   91  A    between atoms: _211  and  _213
REMARK   92  A    between atoms: _213  and  _214
REMARK   93  A    between atoms: _213  and  _216
REMARK   94  A    between atoms: _216  and  _217
REMARK   95  A    between atoms: _222  and  _224
REMARK   96  A    between atoms: _224  and  _225
REMARK   97  A    between atoms: _224  and  _227
REMARK   98  A    between atoms: _227  and  _228
REMARK   99  A    between atoms: _231  and  _233
REMARK  100  A    between atoms: _233  and  _234
REMARK  101  A    between atoms: _233  and  _236
REMARK  102  A    between atoms: _236  and  _237
REMARK  103  A    between atoms: _243  and  _245
REMARK  104  A    between atoms: _245  and  _246
REMARK  105  A    between atoms: _248  and  _250
REMARK  106  A    between atoms: _250  and  _251
REMARK  107  A    between atoms: _250  and  _253
REMARK  108  A    between atoms: _253  and  _254
REMARK  109  A    between atoms: _254  and  _255
REMARK  110  A    between atoms: _255  and  _256
REMARK  111  A    between atoms: _265  and  _267
REMARK  112  A    between atoms: _267  and  _268
REMARK  113  A    between atoms: _267  and  _270
REMARK  114  A    between atoms: _270  and  _271
REMARK  115  A    between atoms: _276  and  _278
REMARK  116  A    between atoms: _278  and  _279
REMARK  117  A    between atoms: _278  and  _281
REMARK  118  A    between atoms: _281  and  _282
REMARK  119  A    between atoms: _282  and  _283
REMARK  120  A    between atoms: _283  and  _284
REMARK  121  A    between atoms: _293  and  _295
REMARK  122  A    between atoms: _295  and  _296
REMARK  123  A    between atoms: _295  and  _298
REMARK  124  A    between atoms: _298  and  _299
REMARK  125  A    between atoms: _302  and  _304
REMARK  126  A    between atoms: _304  and  _305
REMARK  127  A    between atoms: _304  and  _307
REMARK  128  A    between atoms: _307  and  _308
REMARK  129  A    between atoms: _311  and  _313
REMARK  130  A    between atoms: _313  and  _314
REMARK  131  A    between atoms: _313  and  _316
REMARK  132  A    between atoms: _316  and  _317
REMARK  133  A    between atoms: _320  and  _322
REMARK  134  A    between atoms: _322  and  _323
REMARK  135  A    between atoms: _322  and  _325
REMARK  136  A    between atoms: _325  and  _326
REMARK  137  A    between atoms: _329  and  _331
REMARK  138  A    between atoms: _331  and  _332
REMARK  139  A    between atoms: _334  and  _336
REMARK  140  A    between atoms: _336  and  _337
REMARK  141  A    between atoms: _340  and  _342
REMARK  142  A    between atoms: _342  and  _343
REMARK  143  A    between atoms: _342  and  _345
REMARK  144  A    between atoms: _345  and  _346
REMARK  145  A    between atoms: _349  and  _351
REMARK  146  A    between atoms: _351  and  _352
REMARK  147  A    between atoms: _351  and  _354
REMARK  148  A    between atoms: _354  and  _355
REMARK  149  A    between atoms: _355  and  _357
REMARK  150  A    between atoms: _358  and  _360
REMARK  151  A    between atoms: _360  and  _361
REMARK  152  A    between atoms: _360  and  _363
REMARK  153  A    between atoms: _363  and  _364
REMARK  154  A    between atoms: _366  and  _368
REMARK  155  A    between atoms: _368  and  _369
REMARK  156  A    between atoms: _368  and  _371
REMARK  157  A    between atoms: _371  and  _372
REMARK  158  A    between atoms: _375  and  _377
REMARK  159  A    between atoms: _377  and  _378
REMARK  160  A    between atoms: _377  and  _380
REMARK  161  A    between atoms: _380  and  _381
REMARK  162  A    between atoms: _384  and  _386
REMARK  163  A    between atoms: _386  and  _387
REMARK  164  A    between atoms: _386  and  _389
REMARK  165  A    between atoms: _392  and  _394
REMARK  166  A    between atoms: _394  and  _395
REMARK  167  A    between atoms: _397  and  _399
REMARK  168  A    between atoms: _399  and  _400
REMARK  169  A    between atoms: _402  and  _404
REMARK  170  A    between atoms: _404  and  _405
REMARK  171  A    between atoms: _404  and  _407
REMARK  172  A    between atoms: _407  and  _408
REMARK  173  A    between atoms: _411  and  _413
REMARK  174  A    between atoms: _413  and  _414
REMARK  175  A    between atoms: _416  and  _418
REMARK  176  A    between atoms: _418  and  _419
REMARK  177  A    between atoms: _421  and  _423
REMARK  178  A    between atoms: _423  and  _424
REMARK  179  A    between atoms: _423  and  _426
REMARK  180  A    between atoms: _426  and  _427
REMARK  181  A    between atoms: _430  and  _432
REMARK  182  A    between atoms: _432  and  _433
REMARK  183  A    between atoms: _432  and  _435
REMARK  184  A    between atoms: _435  and  _436
REMARK  185  A    between atoms: _439  and  _441
REMARK  186  A    between atoms: _441  and  _442
REMARK  187  A    between atoms: _441  and  _444
REMARK  188  A    between atoms: _444  and  _445
REMARK  189  A    between atoms: _445  and  _446
REMARK  190  A    between atoms: _448  and  _450
REMARK  191  A    between atoms: _450  and  _451
REMARK  192  A    between atoms: _450  and  _453
REMARK  193  A    between atoms: _453  and  _454
REMARK  194  A    between atoms: _458  and  _459
REMARK  195  A    between atoms: _464  and  _466
REMARK  196  A    between atoms: _466  and  _467
REMARK  197  A    between atoms: _466  and  _469
REMARK  198  A    between atoms: _469  and  _470
REMARK  199  A    between atoms: _473  and  _475
REMARK  200  A    between atoms: _475  and  _476
REMARK  201  A    between atoms: _475  and  _478
REMARK  202  A    between atoms: _478  and  _479
REMARK  203  A    between atoms: _484  and  _486
REMARK  204  A    between atoms: _486  and  _487
REMARK  205  A    between atoms: _486  and  _489
REMARK  206  A    between atoms: _489  and  _490
REMARK  207  A    between atoms: _493  and  _495
REMARK  208  A    between atoms: _495  and  _496
REMARK  209  A    between atoms: _495  and  _498
REMARK  210  A    between atoms: _498  and  _499
REMARK  211  A    between atoms: _505  and  _507
REMARK  212  A    between atoms: _507  and  _508
REMARK  213  A    between atoms: _510  and  _512
REMARK  214  A    between atoms: _512  and  _513
REMARK  215  A    between atoms: _512  and  _515
REMARK  216  A    between atoms: _515  and  _516
REMARK  217  A    between atoms: _516  and  _517
REMARK  218  A    between atoms: _517  and  _518
REMARK  219  A    between atoms: _527  and  _529
REMARK  220  A    between atoms: _529  and  _530
REMARK  221  A    between atoms: _529  and  _532
REMARK  222  A    between atoms: _532  and  _533
REMARK                            x       y       z     vdW  Elec       q    Type
REMARK                         _______ _______ _______ _____ _____    ______ ____
ROOT
ATOM      1  O   HOH     1      33.490  13.166  15.051  0.00  0.00    +0.000 OA
ENDROOT
TORSDOF 0
REMARK  Name = ../refined-set-2016/3s45/3s45_pocket.pdb
REMARK  222 active torsions:
REMARK  status: ('A' for Active; 'I' for Inactive)
REMARK    1  A    between atoms: _1  and  _3
REMARK    2  A    between atoms: _3  and  _4
REMARK    3  A    between atoms: _3  and  _6
REMARK    4  A    between atoms: _6  and  _7
REMARK    5  A    between atoms: _7  and  _8
REMARK    6  A    between atoms: _8  and  _9
REMARK    7  A    between atoms: _18  and  _20
REMARK    8  A    between atoms: _20  and  _21
REMARK    9  A    between atoms: _20  and  _23
REMARK   10  A    between atoms: _23  and  _24
REMARK   11  A    between atoms: _27  and  _29
REMARK   12  A    between atoms: _29  and  _30
REMARK   13  A    between atoms: _29  and  _32
REMARK   14  A    between atoms: _32  and  _33
REMARK   15  A    between atoms: _36  and  _38
REMARK   16  A    between atoms: _38  and  _39
REMARK   17  A    between atoms: _38  and  _41
REMARK   18  A    between atoms: _41  and  _42
REMARK   19  A    between atoms: _45  and  _47
REMARK   20  A    between atoms: _47  and  _48
REMARK   21  A    between atoms: _47  and  _50
REMARK   22  A    between atoms: _50  and  _51
REMARK   23  A    between atoms: _54  and  _56
REMARK   24  A    between atoms: _56  and  _57
REMARK   25  A    between atoms: _59  and  _61
REMARK   26  A    between atoms: _61  and  _62
REMARK   27  A    between atoms: _65  and  _67
REMARK   28  A    between atoms: _67  and  _68
REMARK   29  A    between atoms: _67  and  _70
REMARK   30  A    between atoms: _70  and  _71
REMARK   31  A    between atoms: _74  and  _76
REMARK   32  A    between atoms: _76  and  _77
REMARK   33  A    between atoms: _76  and  _79
REMARK   34  A    between atoms: _79  and  _80
REMARK   35  A    between atoms: _83  and  _85
REMARK   36  A    between atoms: _85  and  _86
REMARK   37  A    between atoms: _85  and  _88
REMARK   38  A    between atoms: _88  and  _89
REMARK   39  A    between atoms: _91  and  _93
REMARK   40  A    between atoms: _93  and  _94
REMARK   41  A    between atoms: _93  and  _96
REMARK   42  A    between atoms: _96  and  _97
REMARK   43  A    between atoms: _100  and  _102
REMARK   44  A    between atoms: _102  and  _103
REMARK   45  A    between atoms: _102  and  _105
REMARK   46  A    between atoms: _105  and  _106
REMARK   47  A    between atoms: _106  and  _107
REMARK   48  A    between atoms: _107  and  _108
REMARK   49  A    between atoms: _108  and  _109
REMARK   50  A    between atoms: _113  and  _115
REMARK   51  A    between atoms: _115  and  _116
REMARK   52  A    between atoms: _115  and  _118
REMARK   53  A    between atoms: _118  and  _119
REMARK   54  A    between atoms: _122  and  _124
REMARK   55  A    between atoms: _124  and  _125
REMARK   56  A    between atoms: _124  and  _127
REMARK   57  A    between atoms: _130  and  _132
REMARK   58  A    between atoms: _132  and  _133
REMARK   59  A    between atoms: _135  and  _137
REMARK   60  A    between atoms: _137  and  _138
REMARK   61  A    between atoms: _140  and  _142
REMARK   62  A    between atoms: _142  and  _143
REMARK   63  A    between atoms: _142  and  _145
REMARK   64  A    between atoms: _145  and  _146
REMARK   65  A    between atoms: _149  and  _151
REMARK   66  A    between atoms: _151  and  _152
REMARK   67  A    between atoms: _154  and  _156
REMARK   68  A    between atoms: _156  and  _157
REMARK   69  A    between atoms: _159  and  _161
REMARK   70  A    between atoms: _161  and  _162
REMARK   71  A    between atoms: _161  and  _164
REMARK   72  A    between atoms: _164  and  _165
REMARK   73  A    between atoms: _168  and  _170
REMARK   74  A    between atoms: _170  and  _171
REMARK   75  A    between atoms: _170  and  _173
REMARK   76  A    between atoms: _173  and  _174
REMARK   77  A    between atoms: _177  and  _179
REMARK   78  A    between atoms: _179  and  _180
REMARK   79  A    between atoms: _179  and  _182
REMARK   80  A    between atoms: _182  and  _183
REMARK   81  A    between atoms: _183  and  _184
REMARK   82  A    between atoms: _186  and  _188
REMARK   83  A    between atoms: _188  and  _189
REMARK   84  A    between atoms: _188  and  _191
REMARK   85  A    between atoms: _191  and  _192
REMARK   86  A    between atoms: _196  and  _197
REMARK   87  A    between atoms: _202  and  _204
REMARK   88  A    between atoms: _204  and  _205
REMARK   89  A    between atoms: _204  and  _207
REMARK   90  A    between atoms: _207  and  _208
REMARK   91  A    between atoms: _211  and  _213
REMARK   92  A    between atoms: _213  and  _214
REMARK   93  A    between atoms: _213  and  _216
REMARK   94  A    between atoms: _216  and  _217
REMARK   95  A    between atoms: _222  and  _224
REMARK   96  A    between atoms: _224  and  _225
REMARK   97  A    between atoms: _224  and  _227
REMARK   98  A    between atoms: _227  and  _228
REMARK   99  A    between atoms: _231  and  _233
REMARK  100  A    between atoms: _233  and  _234
REMARK  101  A    between atoms: _233  and  _236
REMARK  102  A    between atoms: _236  and  _237
REMARK  103  A    between atoms: _243  and  _245
REMARK  104  A    between atoms: _245  and  _246
REMARK  105  A    between atoms: _248  and  _250
REMARK  106  A    between atoms: _250  and  _251
REMARK  107  A    between atoms: _250  and  _253
REMARK  108  A    between atoms: _253  and  _254
REMARK  109  A    between atoms: _254  and  _255
REMARK  110  A    between atoms: _255  and  _256
REMARK  111  A    between atoms: _265  and  _267
REMARK  112  A    between atoms: _267  and  _268
REMARK  113  A    between atoms: _267  and  _270
REMARK  114  A    between atoms: _270  and  _271
REMARK  115  A    between atoms: _276  and  _278
REMARK  116  A    between atoms: _278  and  _279
REMARK  117  A    between atoms: _278  and  _281
REMARK  118  A    between atoms: _281  and  _282
REMARK  119  A    between atoms: _282  and  _283
REMARK  120  A    between atoms: _283  and  _284
REMARK  121  A    between atoms: _293  and  _295
REMARK  122  A    between atoms: _295  and  _296
REMARK  123  A    between atoms: _295  and  _298
REMARK  124  A    between atoms: _298  and  _299
REMARK  125  A    between atoms: _302  and  _304
REMARK  126  A    between atoms: _304  and  _305
REMARK  127  A    between atoms: _304  and  _307
REMARK  128  A    between atoms: _307  and  _308
REMARK  129  A    between atoms: _311  and  _313
REMARK  130  A    between atoms: _313  and  _314
REMARK  131  A    between atoms: _313  and  _316
REMARK  132  A    between atoms: _316  and  _317
REMARK  133  A    between atoms: _320  and  _322
REMARK  134  A    between atoms: _322  and  _323
REMARK  135  A    between atoms: _322  and  _325
REMARK  136  A    between atoms: _325  and  _326
REMARK  137  A    between atoms: _329  and  _331
REMARK  138  A    between atoms: _331  and  _332
REMARK  139  A    between atoms: _334  and  _336
REMARK  140  A    between atoms: _336  and  _337
REMARK  141  A    between atoms: _340  and  _342
REMARK  142  A    between atoms: _342  and  _343
REMARK  143  A    between atoms: _342  and  _345
REMARK  144  A    between atoms: _345  and  _346
REMARK  145  A    between atoms: _349  and  _351
REMARK  146  A    between atoms: _351  and  _352
REMARK  147  A    between atoms: _351  and  _354
REMARK  148  A    between atoms: _354  and  _355
REMARK  149  A    between atoms: _355  and  _357
REMARK  150  A    between atoms: _358  and  _360
REMARK  151  A    between atoms: _360  and  _361
REMARK  152  A    between atoms: _360  and  _363
REMARK  153  A    between atoms: _363  and  _364
REMARK  154  A    between atoms: _366  and  _368
REMARK  155  A    between atoms: _368  and  _369
REMARK  156  A    between atoms: _368  and  _371
REMARK  157  A    between atoms: _371  and  _372
REMARK  158  A    between atoms: _375  and  _377
REMARK  159  A    between atoms: _377  and  _378
REMARK  160  A    between atoms: _377  and  _380
REMARK  161  A    between atoms: _380  and  _381
REMARK  162  A    between atoms: _384  and  _386
REMARK  163  A    between atoms: _386  and  _387
REMARK  164  A    between atoms: _386  and  _389
REMARK  165  A    between atoms: _392  and  _394
REMARK  166  A    between atoms: _394  and  _395
REMARK  167  A    between atoms: _397  and  _399
REMARK  168  A    between atoms: _399  and  _400
REMARK  169  A    between atoms: _402  and  _404
REMARK  170  A    between atoms: _404  and  _405
REMARK  171  A    between atoms: _404  and  _407
REMARK  172  A    between atoms: _407  and  _408
REMARK  173  A    between atoms: _411  and  _413
REMARK  174  A    between atoms: _413  and  _414
REMARK  175  A    between atoms: _416  and  _418
REMARK  176  A    between atoms: _418  and  _419
REMARK  177  A    between atoms: _421  and  _423
REMARK  178  A    between atoms: _423  and  _424
REMARK  179  A    between atoms: _423  and  _426
REMARK  180  A    between atoms: _426  and  _427
REMARK  181  A    between atoms: _430  and  _432
REMARK  182  A    between atoms: _432  and  _433
REMARK  183  A    between atoms: _432  and  _435
REMARK  184  A    between atoms: _435  and  _436
REMARK  185  A    between atoms: _439  and  _441
REMARK  186  A    between atoms: _441  and  _442
REMARK  187  A    between atoms: _441  and  _444
REMARK  188  A    between atoms: _444  and  _445
REMARK  189  A    between atoms: _445  and  _446
REMARK  190  A    between atoms: _448  and  _450
REMARK  191  A    between atoms: _450  and  _451
REMARK  192  A    between atoms: _450  and  _453
REMARK  193  A    between atoms: _453  and  _454
REMARK  194  A    between atoms: _458  and  _459
REMARK  195  A    between atoms: _464  and  _466
REMARK  196  A    between atoms: _466  and  _467
REMARK  197  A    between atoms: _466  and  _469
REMARK  198  A    between atoms: _469  and  _470
REMARK  199  A    between atoms: _473  and  _475
REMARK  200  A    between atoms: _475  and  _476
REMARK  201  A    between atoms: _475  and  _478
REMARK  202  A    between atoms: _478  and  _479
REMARK  203  A    between atoms: _484  and  _486
REMARK  204  A    between atoms: _486  and  _487
REMARK  205  A    between atoms: _486  and  _489
REMARK  206  A    between atoms: _489  and  _490
REMARK  207  A    between atoms: _493  and  _495
REMARK  208  A    between atoms: _495  and  _496
REMARK  209  A    between atoms: _495  and  _498
REMARK  210  A    between atoms: _498  and  _499
REMARK  211  A    between atoms: _505  and  _507
REMARK  212  A    between atoms: _507  and  _508
REMARK  213  A    between atoms: _510  and  _512
REMARK  214  A    between atoms: _512  and  _513
REMARK  215  A    between atoms: _512  and  _515
REMARK  216  A    between atoms: _515  and  _516
REMARK  217  A    between atoms: _516  and  _517
REMARK  218  A    between atoms: _517  and  _518
REMARK  219  A    between atoms: _527  and  _529
REMARK  220  A    between atoms: _529  and  _530
REMARK  221  A    between atoms: _529  and  _532
REMARK  222  A    between atoms: _532  and  _533
REMARK                            x       y       z     vdW  Elec       q    Type
REMARK                         _______ _______ _______ _____ _____    ______ ____
ROOT
ATOM      1  O   HOH     1      23.079  11.936   9.850  0.00  0.00    +0.000 OA
ENDROOT
TORSDOF 0
REMARK  Name = ../refined-set-2016/3s45/3s45_pocket.pdb
REMARK  222 active torsions:
REMARK  status: ('A' for Active; 'I' for Inactive)
REMARK    1  A    between atoms: _1  and  _3
REMARK    2  A    between atoms: _3  and  _4
REMARK    3  A    between atoms: _3  and  _6
REMARK    4  A    between atoms: _6  and  _7
REMARK    5  A    between atoms: _7  and  _8
REMARK    6  A    between atoms: _8  and  _9
REMARK    7  A    between atoms: _18  and  _20
REMARK    8  A    between atoms: _20  and  _21
REMARK    9  A    between atoms: _20  and  _23
REMARK   10  A    between atoms: _23  and  _24
REMARK   11  A    between atoms: _27  and  _29
REMARK   12  A    between atoms: _29  and  _30
REMARK   13  A    between atoms: _29  and  _32
REMARK   14  A    between atoms: _32  and  _33
REMARK   15  A    between atoms: _36  and  _38
REMARK   16  A    between atoms: _38  and  _39
REMARK   17  A    between atoms: _38  and  _41
REMARK   18  A    between atoms: _41  and  _42
REMARK   19  A    between atoms: _45  and  _47
REMARK   20  A    between atoms: _47  and  _48
REMARK   21  A    between atoms: _47  and  _50
REMARK   22  A    between atoms: _50  and  _51
REMARK   23  A    between atoms: _54  and  _56
REMARK   24  A    between atoms: _56  and  _57
REMARK   25  A    between atoms: _59  and  _61
REMARK   26  A    between atoms: _61  and  _62
REMARK   27  A    between atoms: _65  and  _67
REMARK   28  A    between atoms: _67  and  _68
REMARK   29  A    between atoms: _67  and  _70
REMARK   30  A    between atoms: _70  and  _71
REMARK   31  A    between atoms: _74  and  _76
REMARK   32  A    between atoms: _76  and  _77
REMARK   33  A    between atoms: _76  and  _79
REMARK   34  A    between atoms: _79  and  _80
REMARK   35  A    between atoms: _83  and  _85
REMARK   36  A    between atoms: _85  and  _86
REMARK   37  A    between atoms: _85  and  _88
REMARK   38  A    between atoms: _88  and  _89
REMARK   39  A    between atoms: _91  and  _93
REMARK   40  A    between atoms: _93  and  _94
REMARK   41  A    between atoms: _93  and  _96
REMARK   42  A    between atoms: _96  and  _97
REMARK   43  A    between atoms: _100  and  _102
REMARK   44  A    between atoms: _102  and  _103
REMARK   45  A    between atoms: _102  and  _105
REMARK   46  A    between atoms: _105  and  _106
REMARK   47  A    between atoms: _106  and  _107
REMARK   48  A    between atoms: _107  and  _108
REMARK   49  A    between atoms: _108  and  _109
REMARK   50  A    between atoms: _113  and  _115
REMARK   51  A    between atoms: _115  and  _116
REMARK   52  A    between atoms: _115  and  _118
REMARK   53  A    between atoms: _118  and  _119
REMARK   54  A    between atoms: _122  and  _124
REMARK   55  A    between atoms: _124  and  _125
REMARK   56  A    between atoms: _124  and  _127
REMARK   57  A    between atoms: _130  and  _132
REMARK   58  A    between atoms: _132  and  _133
REMARK   59  A    between atoms: _135  and  _137
REMARK   60  A    between atoms: _137  and  _138
REMARK   61  A    between atoms: _140  and  _142
REMARK   62  A    between atoms: _142  and  _143
REMARK   63  A    between atoms: _142  and  _145
REMARK   64  A    between atoms: _145  and  _146
REMARK   65  A    between atoms: _149  and  _151
REMARK   66  A    between atoms: _151  and  _152
REMARK   67  A    between atoms: _154  and  _156
REMARK   68  A    between atoms: _156  and  _157
REMARK   69  A    between atoms: _159  and  _161
REMARK   70  A    between atoms: _161  and  _162
REMARK   71  A    between atoms: _161  and  _164
REMARK   72  A    between atoms: _164  and  _165
REMARK   73  A    between atoms: _168  and  _170
REMARK   74  A    between atoms: _170  and  _171
REMARK   75  A    between atoms: _170  and  _173
REMARK   76  A    between atoms: _173  and  _174
REMARK   77  A    between atoms: _177  and  _179
REMARK   78  A    between atoms: _179  and  _180
REMARK   79  A    between atoms: _179  and  _182
REMARK   80  A    between atoms: _182  and  _183
REMARK   81  A    between atoms: _183  and  _184
REMARK   82  A    between atoms: _186  and  _188
REMARK   83  A    between atoms: _188  and  _189
REMARK   84  A    between atoms: _188  and  _191
REMARK   85  A    between atoms: _191  and  _192
REMARK   86  A    between atoms: _196  and  _197
REMARK   87  A    between atoms: _202  and  _204
REMARK   88  A    between atoms: _204  and  _205
REMARK   89  A    between atoms: _204  and  _207
REMARK   90  A    between atoms: _207  and  _208
REMARK   91  A    between atoms: _211  and  _213
REMARK   92  A    between atoms: _213  and  _214
REMARK   93  A    between atoms: _213  and  _216
REMARK   94  A    between atoms: _216  and  _217
REMARK   95  A    between atoms: _222  and  _224
REMARK   96  A    between atoms: _224  and  _225
REMARK   97  A    between atoms: _224  and  _227
REMARK   98  A    between atoms: _227  and  _228
REMARK   99  A    between atoms: _231  and  _233
REMARK  100  A    between atoms: _233  and  _234
REMARK  101  A    between atoms: _233  and  _236
REMARK  102  A    between atoms: _236  and  _237
REMARK  103  A    between atoms: _243  and  _245
REMARK  104  A    between atoms: _245  and  _246
REMARK  105  A    between atoms: _248  and  _250
REMARK  106  A    between atoms: _250  and  _251
REMARK  107  A    between atoms: _250  and  _253
REMARK  108  A    between atoms: _253  and  _254
REMARK  109  A    between atoms: _254  and  _255
REMARK  110  A    between atoms: _255  and  _256
REMARK  111  A    between atoms: _265  and  _267
REMARK  112  A    between atoms: _267  and  _268
REMARK  113  A    between atoms: _267  and  _270
REMARK  114  A    between atoms: _270  and  _271
REMARK  115  A    between atoms: _276  and  _278
REMARK  116  A    between atoms: _278  and  _279
REMARK  117  A    between atoms: _278  and  _281
REMARK  118  A    between atoms: _281  and  _282
REMARK  119  A    between atoms: _282  and  _283
REMARK  120  A    between atoms: _283  and  _284
REMARK  121  A    between atoms: _293  and  _295
REMARK  122  A    between atoms: _295  and  _296
REMARK  123  A    between atoms: _295  and  _298
REMARK  124  A    between atoms: _298  and  _299
REMARK  125  A    between atoms: _302  and  _304
REMARK  126  A    between atoms: _304  and  _305
REMARK  127  A    between atoms: _304  and  _307
REMARK  128  A    between atoms: _307  and  _308
REMARK  129  A    between atoms: _311  and  _313
REMARK  130  A    between atoms: _313  and  _314
REMARK  131  A    between atoms: _313  and  _316
REMARK  132  A    between atoms: _316  and  _317
REMARK  133  A    between atoms: _320  and  _322
REMARK  134  A    between atoms: _322  and  _323
REMARK  135  A    between atoms: _322  and  _325
REMARK  136  A    between atoms: _325  and  _326
REMARK  137  A    between atoms: _329  and  _331
REMARK  138  A    between atoms: _331  and  _332
REMARK  139  A    between atoms: _334  and  _336
REMARK  140  A    between atoms: _336  and  _337
REMARK  141  A    between atoms: _340  and  _342
REMARK  142  A    between atoms: _342  and  _343
REMARK  143  A    between atoms: _342  and  _345
REMARK  144  A    between atoms: _345  and  _346
REMARK  145  A    between atoms: _349  and  _351
REMARK  146  A    between atoms: _351  and  _352
REMARK  147  A    between atoms: _351  and  _354
REMARK  148  A    between atoms: _354  and  _355
REMARK  149  A    between atoms: _355  and  _357
REMARK  150  A    between atoms: _358  and  _360
REMARK  151  A    between atoms: _360  and  _361
REMARK  152  A    between atoms: _360  and  _363
REMARK  153  A    between atoms: _363  and  _364
REMARK  154  A    between atoms: _366  and  _368
REMARK  155  A    between atoms: _368  and  _369
REMARK  156  A    between atoms: _368  and  _371
REMARK  157  A    between atoms: _371  and  _372
REMARK  158  A    between atoms: _375  and  _377
REMARK  159  A    between atoms: _377  and  _378
REMARK  160  A    between atoms: _377  and  _380
REMARK  161  A    between atoms: _380  and  _381
REMARK  162  A    between atoms: _384  and  _386
REMARK  163  A    between atoms: _386  and  _387
REMARK  164  A    between atoms: _386  and  _389
REMARK  165  A    between atoms: _392  and  _394
REMARK  166  A    between atoms: _394  and  _395
REMARK  167  A    between atoms: _397  and  _399
REMARK  168  A    between atoms: _399  and  _400
REMARK  169  A    between atoms: _402  and  _404
REMARK  170  A    between atoms: _404  and  _405
REMARK  171  A    between atoms: _404  and  _407
REMARK  172  A    between atoms: _407  and  _408
REMARK  173  A    between atoms: _411  and  _413
REMARK  174  A    between atoms: _413  and  _414
REMARK  175  A    between atoms: _416  and  _418
REMARK  176  A    between atoms: _418  and  _419
REMARK  177  A    between atoms: _421  and  _423
REMARK  178  A    between atoms: _423  and  _424
REMARK  179  A    between atoms: _423  and  _426
REMARK  180  A    between atoms: _426  and  _427
REMARK  181  A    between atoms: _430  and  _432
REMARK  182  A    between atoms: _432  and  _433
REMARK  183  A    between atoms: _432  and  _435
REMARK  184  A    between atoms: _435  and  _436
REMARK  185  A    between atoms: _439  and  _441
REMARK  186  A    between atoms: _441  and  _442
REMARK  187  A    between atoms: _441  and  _444
REMARK  188  A    between atoms: _444  and  _445
REMARK  189  A    between atoms: _445  and  _446
REMARK  190  A    between atoms: _448  and  _450
REMARK  191  A    between atoms: _450  and  _451
REMARK  192  A    between atoms: _450  and  _453
REMARK  193  A    between atoms: _453  and  _454
REMARK  194  A    between atoms: _458  and  _459
REMARK  195  A    between atoms: _464  and  _466
REMARK  196  A    between atoms: _466  and  _467
REMARK  197  A    between atoms: _466  and  _469
REMARK  198  A    between atoms: _469  and  _470
REMARK  199  A    between atoms: _473  and  _475
REMARK  200  A    between atoms: _475  and  _476
REMARK  201  A    between atoms: _475  and  _478
REMARK  202  A    between atoms: _478  and  _479
REMARK  203  A    between atoms: _484  and  _486
REMARK  204  A    between atoms: _486  and  _487
REMARK  205  A    between atoms: _486  and  _489
REMARK  206  A    between atoms: _489  and  _490
REMARK  207  A    between atoms: _493  and  _495
REMARK  208  A    between atoms: _495  and  _496
REMARK  209  A    between atoms: _495  and  _498
REMARK  210  A    between atoms: _498  and  _499
REMARK  211  A    between atoms: _505  and  _507
REMARK  212  A    between atoms: _507  and  _508
REMARK  213  A    between atoms: _510  and  _512
REMARK  214  A    between atoms: _512  and  _513
REMARK  215  A    between atoms: _512  and  _515
REMARK  216  A    between atoms: _515  and  _516
REMARK  217  A    between atoms: _516  and  _517
REMARK  218  A    between atoms: _517  and  _518
REMARK  219  A    between atoms: _527  and  _529
REMARK  220  A    between atoms: _529  and  _530
REMARK  221  A    between atoms: _529  and  _532
REMARK  222  A    between atoms: _532  and  _533
REMARK                            x       y       z     vdW  Elec       q    Type
REMARK                         _______ _______ _______ _____ _____    ______ ____
ROOT
ATOM      1  O   HOH     1      22.452  13.789  11.886  0.00  0.00    +0.000 OA
ENDROOT
TORSDOF 0
REMARK  Name = ../refined-set-2016/3s45/3s45_pocket.pdb
REMARK  222 active torsions:
REMARK  status: ('A' for Active; 'I' for Inactive)
REMARK    1  A    between atoms: _1  and  _3
REMARK    2  A    between atoms: _3  and  _4
REMARK    3  A    between atoms: _3  and  _6
REMARK    4  A    between atoms: _6  and  _7
REMARK    5  A    between atoms: _7  and  _8
REMARK    6  A    between atoms: _8  and  _9
REMARK    7  A    between atoms: _18  and  _20
REMARK    8  A    between atoms: _20  and  _21
REMARK    9  A    between atoms: _20  and  _23
REMARK   10  A    between atoms: _23  and  _24
REMARK   11  A    between atoms: _27  and  _29
REMARK   12  A    between atoms: _29  and  _30
REMARK   13  A    between atoms: _29  and  _32
REMARK   14  A    between atoms: _32  and  _33
REMARK   15  A    between atoms: _36  and  _38
REMARK   16  A    between atoms: _38  and  _39
REMARK   17  A    between atoms: _38  and  _41
REMARK   18  A    between atoms: _41  and  _42
REMARK   19  A    between atoms: _45  and  _47
REMARK   20  A    between atoms: _47  and  _48
REMARK   21  A    between atoms: _47  and  _50
REMARK   22  A    between atoms: _50  and  _51
REMARK   23  A    between atoms: _54  and  _56
REMARK   24  A    between atoms: _56  and  _57
REMARK   25  A    between atoms: _59  and  _61
REMARK   26  A    between atoms: _61  and  _62
REMARK   27  A    between atoms: _65  and  _67
REMARK   28  A    between atoms: _67  and  _68
REMARK   29  A    between atoms: _67  and  _70
REMARK   30  A    between atoms: _70  and  _71
REMARK   31  A    between atoms: _74  and  _76
REMARK   32  A    between atoms: _76  and  _77
REMARK   33  A    between atoms: _76  and  _79
REMARK   34  A    between atoms: _79  and  _80
REMARK   35  A    between atoms: _83  and  _85
REMARK   36  A    between atoms: _85  and  _86
REMARK   37  A    between atoms: _85  and  _88
REMARK   38  A    between atoms: _88  and  _89
REMARK   39  A    between atoms: _91  and  _93
REMARK   40  A    between atoms: _93  and  _94
REMARK   41  A    between atoms: _93  and  _96
REMARK   42  A    between atoms: _96  and  _97
REMARK   43  A    between atoms: _100  and  _102
REMARK   44  A    between atoms: _102  and  _103
REMARK   45  A    between atoms: _102  and  _105
REMARK   46  A    between atoms: _105  and  _106
REMARK   47  A    between atoms: _106  and  _107
REMARK   48  A    between atoms: _107  and  _108
REMARK   49  A    between atoms: _108  and  _109
REMARK   50  A    between atoms: _113  and  _115
REMARK   51  A    between atoms: _115  and  _116
REMARK   52  A    between atoms: _115  and  _118
REMARK   53  A    between atoms: _118  and  _119
REMARK   54  A    between atoms: _122  and  _124
REMARK   55  A    between atoms: _124  and  _125
REMARK   56  A    between atoms: _124  and  _127
REMARK   57  A    between atoms: _130  and  _132
REMARK   58  A    between atoms: _132  and  _133
REMARK   59  A    between atoms: _135  and  _137
REMARK   60  A    between atoms: _137  and  _138
REMARK   61  A    between atoms: _140  and  _142
REMARK   62  A    between atoms: _142  and  _143
REMARK   63  A    between atoms: _142  and  _145
REMARK   64  A    between atoms: _145  and  _146
REMARK   65  A    between atoms: _149  and  _151
REMARK   66  A    between atoms: _151  and  _152
REMARK   67  A    between atoms: _154  and  _156
REMARK   68  A    between atoms: _156  and  _157
REMARK   69  A    between atoms: _159  and  _161
REMARK   70  A    between atoms: _161  and  _162
REMARK   71  A    between atoms: _161  and  _164
REMARK   72  A    between atoms: _164  and  _165
REMARK   73  A    between atoms: _168  and  _170
REMARK   74  A    between atoms: _170  and  _171
REMARK   75  A    between atoms: _170  and  _173
REMARK   76  A    between atoms: _173  and  _174
REMARK   77  A    between atoms: _177  and  _179
REMARK   78  A    between atoms: _179  and  _180
REMARK   79  A    between atoms: _179  and  _182
REMARK   80  A    between atoms: _182  and  _183
REMARK   81  A    between atoms: _183  and  _184
REMARK   82  A    between atoms: _186  and  _188
REMARK   83  A    between atoms: _188  and  _189
REMARK   84  A    between atoms: _188  and  _191
REMARK   85  A    between atoms: _191  and  _192
REMARK   86  A    between atoms: _196  and  _197
REMARK   87  A    between atoms: _202  and  _204
REMARK   88  A    between atoms: _204  and  _205
REMARK   89  A    between atoms: _204  and  _207
REMARK   90  A    between atoms: _207  and  _208
REMARK   91  A    between atoms: _211  and  _213
REMARK   92  A    between atoms: _213  and  _214
REMARK   93  A    between atoms: _213  and  _216
REMARK   94  A    between atoms: _216  and  _217
REMARK   95  A    between atoms: _222  and  _224
REMARK   96  A    between atoms: _224  and  _225
REMARK   97  A    between atoms: _224  and  _227
REMARK   98  A    between atoms: _227  and  _228
REMARK   99  A    between atoms: _231  and  _233
REMARK  100  A    between atoms: _233  and  _234
REMARK  101  A    between atoms: _233  and  _236
REMARK  102  A    between atoms: _236  and  _237
REMARK  103  A    between atoms: _243  and  _245
REMARK  104  A    between atoms: _245  and  _246
REMARK  105  A    between atoms: _248  and  _250
REMARK  106  A    between atoms: _250  and  _251
REMARK  107  A    between atoms: _250  and  _253
REMARK  108  A    between atoms: _253  and  _254
REMARK  109  A    between atoms: _254  and  _255
REMARK  110  A    between atoms: _255  and  _256
REMARK  111  A    between atoms: _265  and  _267
REMARK  112  A    between atoms: _267  and  _268
REMARK  113  A    between atoms: _267  and  _270
REMARK  114  A    between atoms: _270  and  _271
REMARK  115  A    between atoms: _276  and  _278
REMARK  116  A    between atoms: _278  and  _279
REMARK  117  A    between atoms: _278  and  _281
REMARK  118  A    between atoms: _281  and  _282
REMARK  119  A    between atoms: _282  and  _283
REMARK  120  A    between atoms: _283  and  _284
REMARK  121  A    between atoms: _293  and  _295
REMARK  122  A    between atoms: _295  and  _296
REMARK  123  A    between atoms: _295  and  _298
REMARK  124  A    between atoms: _298  and  _299
REMARK  125  A    between atoms: _302  and  _304
REMARK  126  A    between atoms: _304  and  _305
REMARK  127  A    between atoms: _304  and  _307
REMARK  128  A    between atoms: _307  and  _308
REMARK  129  A    between atoms: _311  and  _313
REMARK  130  A    between atoms: _313  and  _314
REMARK  131  A    between atoms: _313  and  _316
REMARK  132  A    between atoms: _316  and  _317
REMARK  133  A    between atoms: _320  and  _322
REMARK  134  A    between atoms: _322  and  _323
REMARK  135  A    between atoms: _322  and  _325
REMARK  136  A    between atoms: _325  and  _326
REMARK  137  A    between atoms: _329  and  _331
REMARK  138  A    between atoms: _331  and  _332
REMARK  139  A    between atoms: _334  and  _336
REMARK  140  A    between atoms: _336  and  _337
REMARK  141  A    between atoms: _340  and  _342
REMARK  142  A    between atoms: _342  and  _343
REMARK  143  A    between atoms: _342  and  _345
REMARK  144  A    between atoms: _345  and  _346
REMARK  145  A    between atoms: _349  and  _351
REMARK  146  A    between atoms: _351  and  _352
REMARK  147  A    between atoms: _351  and  _354
REMARK  148  A    between atoms: _354  and  _355
REMARK  149  A    between atoms: _355  and  _357
REMARK  150  A    between atoms: _358  and  _360
REMARK  151  A    between atoms: _360  and  _361
REMARK  152  A    between atoms: _360  and  _363
REMARK  153  A    between atoms: _363  and  _364
REMARK  154  A    between atoms: _366  and  _368
REMARK  155  A    between atoms: _368  and  _369
REMARK  156  A    between atoms: _368  and  _371
REMARK  157  A    between atoms: _371  and  _372
REMARK  158  A    between atoms: _375  and  _377
REMARK  159  A    between atoms: _377  and  _378
REMARK  160  A    between atoms: _377  and  _380
REMARK  161  A    between atoms: _380  and  _381
REMARK  162  A    between atoms: _384  and  _386
REMARK  163  A    between atoms: _386  and  _387
REMARK  164  A    between atoms: _386  and  _389
REMARK  165  A    between atoms: _392  and  _394
REMARK  166  A    between atoms: _394  and  _395
REMARK  167  A    between atoms: _397  and  _399
REMARK  168  A    between atoms: _399  and  _400
REMARK  169  A    between atoms: _402  and  _404
REMARK  170  A    between atoms: _404  and  _405
REMARK  171  A    between atoms: _404  and  _407
REMARK  172  A    between atoms: _407  and  _408
REMARK  173  A    between atoms: _411  and  _413
REMARK  174  A    between atoms: _413  and  _414
REMARK  175  A    between atoms: _416  and  _418
REMARK  176  A    between atoms: _418  and  _419
REMARK  177  A    between atoms: _421  and  _423
REMARK  178  A    between atoms: _423  and  _424
REMARK  179  A    between atoms: _423  and  _426
REMARK  180  A    between atoms: _426  and  _427
REMARK  181  A    between atoms: _430  and  _432
REMARK  182  A    between atoms: _432  and  _433
REMARK  183  A    between atoms: _432  and  _435
REMARK  184  A    between atoms: _435  and  _436
REMARK  185  A    between atoms: _439  and  _441
REMARK  186  A    between atoms: _441  and  _442
REMARK  187  A    between atoms: _441  and  _444
REMARK  188  A    between atoms: _444  and  _445
REMARK  189  A    between atoms: _445  and  _446
REMARK  190  A    between atoms: _448  and  _450
REMARK  191  A    between atoms: _450  and  _451
REMARK  192  A    between atoms: _450  and  _453
REMARK  193  A    between atoms: _453  and  _454
REMARK  194  A    between atoms: _458  and  _459
REMARK  195  A    between atoms: _464  and  _466
REMARK  196  A    between atoms: _466  and  _467
REMARK  197  A    between atoms: _466  and  _469
REMARK  198  A    between atoms: _469  and  _470
REMARK  199  A    between atoms: _473  and  _475
REMARK  200  A    between atoms: _475  and  _476
REMARK  201  A    between atoms: _475  and  _478
REMARK  202  A    between atoms: _478  and  _479
REMARK  203  A    between atoms: _484  and  _486
REMARK  204  A    between atoms: _486  and  _487
REMARK  205  A    between atoms: _486  and  _489
REMARK  206  A    between atoms: _489  and  _490
REMARK  207  A    between atoms: _493  and  _495
REMARK  208  A    between atoms: _495  and  _496
REMARK  209  A    between atoms: _495  and  _498
REMARK  210  A    between atoms: _498  and  _499
REMARK  211  A    between atoms: _505  and  _507
REMARK  212  A    between atoms: _507  and  _508
REMARK  213  A    between atoms: _510  and  _512
REMARK  214  A    between atoms: _512  and  _513
REMARK  215  A    between atoms: _512  and  _515
REMARK  216  A    between atoms: _515  and  _516
REMARK  217  A    between atoms: _516  and  _517
REMARK  218  A    between atoms: _517  and  _518
REMARK  219  A    between atoms: _527  and  _529
REMARK  220  A    between atoms: _529  and  _530
REMARK  221  A    between atoms: _529  and  _532
REMARK  222  A    between atoms: _532  and  _533
REMARK                            x       y       z     vdW  Elec       q    Type
REMARK                         _______ _______ _______ _____ _____    ______ ____
ROOT
ATOM      1  O   HOH     1      20.060  19.459  19.113  0.00  0.00    +0.000 OA
ENDROOT
TORSDOF 0
REMARK  Name = ../refined-set-2016/3s45/3s45_pocket.pdb
REMARK  222 active torsions:
REMARK  status: ('A' for Active; 'I' for Inactive)
REMARK    1  A    between atoms: _1  and  _3
REMARK    2  A    between atoms: _3  and  _4
REMARK    3  A    between atoms: _3  and  _6
REMARK    4  A    between atoms: _6  and  _7
REMARK    5  A    between atoms: _7  and  _8
REMARK    6  A    between atoms: _8  and  _9
REMARK    7  A    between atoms: _18  and  _20
REMARK    8  A    between atoms: _20  and  _21
REMARK    9  A    between atoms: _20  and  _23
REMARK   10  A    between atoms: _23  and  _24
REMARK   11  A    between atoms: _27  and  _29
REMARK   12  A    between atoms: _29  and  _30
REMARK   13  A    between atoms: _29  and  _32
REMARK   14  A    between atoms: _32  and  _33
REMARK   15  A    between atoms: _36  and  _38
REMARK   16  A    between atoms: _38  and  _39
REMARK   17  A    between atoms: _38  and  _41
REMARK   18  A    between atoms: _41  and  _42
REMARK   19  A    between atoms: _45  and  _47
REMARK   20  A    between atoms: _47  and  _48
REMARK   21  A    between atoms: _47  and  _50
REMARK   22  A    between atoms: _50  and  _51
REMARK   23  A    between atoms: _54  and  _56
REMARK   24  A    between atoms: _56  and  _57
REMARK   25  A    between atoms: _59  and  _61
REMARK   26  A    between atoms: _61  and  _62
REMARK   27  A    between atoms: _65  and  _67
REMARK   28  A    between atoms: _67  and  _68
REMARK   29  A    between atoms: _67  and  _70
REMARK   30  A    between atoms: _70  and  _71
REMARK   31  A    between atoms: _74  and  _76
REMARK   32  A    between atoms: _76  and  _77
REMARK   33  A    between atoms: _76  and  _79
REMARK   34  A    between atoms: _79  and  _80
REMARK   35  A    between atoms: _83  and  _85
REMARK   36  A    between atoms: _85  and  _86
REMARK   37  A    between atoms: _85  and  _88
REMARK   38  A    between atoms: _88  and  _89
REMARK   39  A    between atoms: _91  and  _93
REMARK   40  A    between atoms: _93  and  _94
REMARK   41  A    between atoms: _93  and  _96
REMARK   42  A    between atoms: _96  and  _97
REMARK   43  A    between atoms: _100  and  _102
REMARK   44  A    between atoms: _102  and  _103
REMARK   45  A    between atoms: _102  and  _105
REMARK   46  A    between atoms: _105  and  _106
REMARK   47  A    between atoms: _106  and  _107
REMARK   48  A    between atoms: _107  and  _108
REMARK   49  A    between atoms: _108  and  _109
REMARK   50  A    between atoms: _113  and  _115
REMARK   51  A    between atoms: _115  and  _116
REMARK   52  A    between atoms: _115  and  _118
REMARK   53  A    between atoms: _118  and  _119
REMARK   54  A    between atoms: _122  and  _124
REMARK   55  A    between atoms: _124  and  _125
REMARK   56  A    between atoms: _124  and  _127
REMARK   57  A    between atoms: _130  and  _132
REMARK   58  A    between atoms: _132  and  _133
REMARK   59  A    between atoms: _135  and  _137
REMARK   60  A    between atoms: _137  and  _138
REMARK   61  A    between atoms: _140  and  _142
REMARK   62  A    between atoms: _142  and  _143
REMARK   63  A    between atoms: _142  and  _145
REMARK   64  A    between atoms: _145  and  _146
REMARK   65  A    between atoms: _149  and  _151
REMARK   66  A    between atoms: _151  and  _152
REMARK   67  A    between atoms: _154  and  _156
REMARK   68  A    between atoms: _156  and  _157
REMARK   69  A    between atoms: _159  and  _161
REMARK   70  A    between atoms: _161  and  _162
REMARK   71  A    between atoms: _161  and  _164
REMARK   72  A    between atoms: _164  and  _165
REMARK   73  A    between atoms: _168  and  _170
REMARK   74  A    between atoms: _170  and  _171
REMARK   75  A    between atoms: _170  and  _173
REMARK   76  A    between atoms: _173  and  _174
REMARK   77  A    between atoms: _177  and  _179
REMARK   78  A    between atoms: _179  and  _180
REMARK   79  A    between atoms: _179  and  _182
REMARK   80  A    between atoms: _182  and  _183
REMARK   81  A    between atoms: _183  and  _184
REMARK   82  A    between atoms: _186  and  _188
REMARK   83  A    between atoms: _188  and  _189
REMARK   84  A    between atoms: _188  and  _191
REMARK   85  A    between atoms: _191  and  _192
REMARK   86  A    between atoms: _196  and  _197
REMARK   87  A    between atoms: _202  and  _204
REMARK   88  A    between atoms: _204  and  _205
REMARK   89  A    between atoms: _204  and  _207
REMARK   90  A    between atoms: _207  and  _208
REMARK   91  A    between atoms: _211  and  _213
REMARK   92  A    between atoms: _213  and  _214
REMARK   93  A    between atoms: _213  and  _216
REMARK   94  A    between atoms: _216  and  _217
REMARK   95  A    between atoms: _222  and  _224
REMARK   96  A    between atoms: _224  and  _225
REMARK   97  A    between atoms: _224  and  _227
REMARK   98  A    between atoms: _227  and  _228
REMARK   99  A    between atoms: _231  and  _233
REMARK  100  A    between atoms: _233  and  _234
REMARK  101  A    between atoms: _233  and  _236
REMARK  102  A    between atoms: _236  and  _237
REMARK  103  A    between atoms: _243  and  _245
REMARK  104  A    between atoms: _245  and  _246
REMARK  105  A    between atoms: _248  and  _250
REMARK  106  A    between atoms: _250  and  _251
REMARK  107  A    between atoms: _250  and  _253
REMARK  108  A    between atoms: _253  and  _254
REMARK  109  A    between atoms: _254  and  _255
REMARK  110  A    between atoms: _255  and  _256
REMARK  111  A    between atoms: _265  and  _267
REMARK  112  A    between atoms: _267  and  _268
REMARK  113  A    between atoms: _267  and  _270
REMARK  114  A    between atoms: _270  and  _271
REMARK  115  A    between atoms: _276  and  _278
REMARK  116  A    between atoms: _278  and  _279
REMARK  117  A    between atoms: _278  and  _281
REMARK  118  A    between atoms: _281  and  _282
REMARK  119  A    between atoms: _282  and  _283
REMARK  120  A    between atoms: _283  and  _284
REMARK  121  A    between atoms: _293  and  _295
REMARK  122  A    between atoms: _295  and  _296
REMARK  123  A    between atoms: _295  and  _298
REMARK  124  A    between atoms: _298  and  _299
REMARK  125  A    between atoms: _302  and  _304
REMARK  126  A    between atoms: _304  and  _305
REMARK  127  A    between atoms: _304  and  _307
REMARK  128  A    between atoms: _307  and  _308
REMARK  129  A    between atoms: _311  and  _313
REMARK  130  A    between atoms: _313  and  _314
REMARK  131  A    between atoms: _313  and  _316
REMARK  132  A    between atoms: _316  and  _317
REMARK  133  A    between atoms: _320  and  _322
REMARK  134  A    between atoms: _322  and  _323
REMARK  135  A    between atoms: _322  and  _325
REMARK  136  A    between atoms: _325  and  _326
REMARK  137  A    between atoms: _329  and  _331
REMARK  138  A    between atoms: _331  and  _332
REMARK  139  A    between atoms: _334  and  _336
REMARK  140  A    between atoms: _336  and  _337
REMARK  141  A    between atoms: _340  and  _342
REMARK  142  A    between atoms: _342  and  _343
REMARK  143  A    between atoms: _342  and  _345
REMARK  144  A    between atoms: _345  and  _346
REMARK  145  A    between atoms: _349  and  _351
REMARK  146  A    between atoms: _351  and  _352
REMARK  147  A    between atoms: _351  and  _354
REMARK  148  A    between atoms: _354  and  _355
REMARK  149  A    between atoms: _355  and  _357
REMARK  150  A    between atoms: _358  and  _360
REMARK  151  A    between atoms: _360  and  _361
REMARK  152  A    between atoms: _360  and  _363
REMARK  153  A    between atoms: _363  and  _364
REMARK  154  A    between atoms: _366  and  _368
REMARK  155  A    between atoms: _368  and  _369
REMARK  156  A    between atoms: _368  and  _371
REMARK  157  A    between atoms: _371  and  _372
REMARK  158  A    between atoms: _375  and  _377
REMARK  159  A    between atoms: _377  and  _378
REMARK  160  A    between atoms: _377  and  _380
REMARK  161  A    between atoms: _380  and  _381
REMARK  162  A    between atoms: _384  and  _386
REMARK  163  A    between atoms: _386  and  _387
REMARK  164  A    between atoms: _386  and  _389
REMARK  165  A    between atoms: _392  and  _394
REMARK  166  A    between atoms: _394  and  _395
REMARK  167  A    between atoms: _397  and  _399
REMARK  168  A    between atoms: _399  and  _400
REMARK  169  A    between atoms: _402  and  _404
REMARK  170  A    between atoms: _404  and  _405
REMARK  171  A    between atoms: _404  and  _407
REMARK  172  A    between atoms: _407  and  _408
REMARK  173  A    between atoms: _411  and  _413
REMARK  174  A    between atoms: _413  and  _414
REMARK  175  A    between atoms: _416  and  _418
REMARK  176  A    between atoms: _418  and  _419
REMARK  177  A    between atoms: _421  and  _423
REMARK  178  A    between atoms: _423  and  _424
REMARK  179  A    between atoms: _423  and  _426
REMARK  180  A    between atoms: _426  and  _427
REMARK  181  A    between atoms: _430  and  _432
REMARK  182  A    between atoms: _432  and  _433
REMARK  183  A    between atoms: _432  and  _435
REMARK  184  A    between atoms: _435  and  _436
REMARK  185  A    between atoms: _439  and  _441
REMARK  186  A    between atoms: _441  and  _442
REMARK  187  A    between atoms: _441  and  _444
REMARK  188  A    between atoms: _444  and  _445
REMARK  189  A    between atoms: _445  and  _446
REMARK  190  A    between atoms: _448  and  _450
REMARK  191  A    between atoms: _450  and  _451
REMARK  192  A    between atoms: _450  and  _453
REMARK  193  A    between atoms: _453  and  _454
REMARK  194  A    between atoms: _458  and  _459
REMARK  195  A    between atoms: _464  and  _466
REMARK  196  A    between atoms: _466  and  _467
REMARK  197  A    between atoms: _466  and  _469
REMARK  198  A    between atoms: _469  and  _470
REMARK  199  A    between atoms: _473  and  _475
REMARK  200  A    between atoms: _475  and  _476
REMARK  201  A    between atoms: _475  and  _478
REMARK  202  A    between atoms: _478  and  _479
REMARK  203  A    between atoms: _484  and  _486
REMARK  204  A    between atoms: _486  and  _487
REMARK  205  A    between atoms: _486  and  _489
REMARK  206  A    between atoms: _489  and  _490
REMARK  207  A    between atoms: _493  and  _495
REMARK  208  A    between atoms: _495  and  _496
REMARK  209  A    between atoms: _495  and  _498
REMARK  210  A    between atoms: _498  and  _499
REMARK  211  A    between atoms: _505  and  _507
REMARK  212  A    between atoms: _507  and  _508
REMARK  213  A    between atoms: _510  and  _512
REMARK  214  A    between atoms: _512  and  _513
REMARK  215  A    between atoms: _512  and  _515
REMARK  216  A    between atoms: _515  and  _516
REMARK  217  A    between atoms: _516  and  _517
REMARK  218  A    between atoms: _517  and  _518
REMARK  219  A    between atoms: _527  and  _529
REMARK  220  A    between atoms: _529  and  _530
REMARK  221  A    between atoms: _529  and  _532
REMARK  222  A    between atoms: _532  and  _533
REMARK                            x       y       z     vdW  Elec       q    Type
REMARK                         _______ _______ _______ _____ _____    ______ ____
ROOT
ATOM      1  O   HOH     1      22.683  18.449  16.097  0.00  0.00    +0.000 OA
ENDROOT
TORSDOF 0
REMARK  Name = ../refined-set-2016/3s45/3s45_pocket.pdb
REMARK  222 active torsions:
REMARK  status: ('A' for Active; 'I' for Inactive)
REMARK    1  A    between atoms: _1  and  _3
REMARK    2  A    between atoms: _3  and  _4
REMARK    3  A    between atoms: _3  and  _6
REMARK    4  A    between atoms: _6  and  _7
REMARK    5  A    between atoms: _7  and  _8
REMARK    6  A    between atoms: _8  and  _9
REMARK    7  A    between atoms: _18  and  _20
REMARK    8  A    between atoms: _20  and  _21
REMARK    9  A    between atoms: _20  and  _23
REMARK   10  A    between atoms: _23  and  _24
REMARK   11  A    between atoms: _27  and  _29
REMARK   12  A    between atoms: _29  and  _30
REMARK   13  A    between atoms: _29  and  _32
REMARK   14  A    between atoms: _32  and  _33
REMARK   15  A    between atoms: _36  and  _38
REMARK   16  A    between atoms: _38  and  _39
REMARK   17  A    between atoms: _38  and  _41
REMARK   18  A    between atoms: _41  and  _42
REMARK   19  A    between atoms: _45  and  _47
REMARK   20  A    between atoms: _47  and  _48
REMARK   21  A    between atoms: _47  and  _50
REMARK   22  A    between atoms: _50  and  _51
REMARK   23  A    between atoms: _54  and  _56
REMARK   24  A    between atoms: _56  and  _57
REMARK   25  A    between atoms: _59  and  _61
REMARK   26  A    between atoms: _61  and  _62
REMARK   27  A    between atoms: _65  and  _67
REMARK   28  A    between atoms: _67  and  _68
REMARK   29  A    between atoms: _67  and  _70
REMARK   30  A    between atoms: _70  and  _71
REMARK   31  A    between atoms: _74  and  _76
REMARK   32  A    between atoms: _76  and  _77
REMARK   33  A    between atoms: _76  and  _79
REMARK   34  A    between atoms: _79  and  _80
REMARK   35  A    between atoms: _83  and  _85
REMARK   36  A    between atoms: _85  and  _86
REMARK   37  A    between atoms: _85  and  _88
REMARK   38  A    between atoms: _88  and  _89
REMARK   39  A    between atoms: _91  and  _93
REMARK   40  A    between atoms: _93  and  _94
REMARK   41  A    between atoms: _93  and  _96
REMARK   42  A    between atoms: _96  and  _97
REMARK   43  A    between atoms: _100  and  _102
REMARK   44  A    between atoms: _102  and  _103
REMARK   45  A    between atoms: _102  and  _105
REMARK   46  A    between atoms: _105  and  _106
REMARK   47  A    between atoms: _106  and  _107
REMARK   48  A    between atoms: _107  and  _108
REMARK   49  A    between atoms: _108  and  _109
REMARK   50  A    between atoms: _113  and  _115
REMARK   51  A    between atoms: _115  and  _116
REMARK   52  A    between atoms: _115  and  _118
REMARK   53  A    between atoms: _118  and  _119
REMARK   54  A    between atoms: _122  and  _124
REMARK   55  A    between atoms: _124  and  _125
REMARK   56  A    between atoms: _124  and  _127
REMARK   57  A    between atoms: _130  and  _132
REMARK   58  A    between atoms: _132  and  _133
REMARK   59  A    between atoms: _135  and  _137
REMARK   60  A    between atoms: _137  and  _138
REMARK   61  A    between atoms: _140  and  _142
REMARK   62  A    between atoms: _142  and  _143
REMARK   63  A    between atoms: _142  and  _145
REMARK   64  A    between atoms: _145  and  _146
REMARK   65  A    between atoms: _149  and  _151
REMARK   66  A    between atoms: _151  and  _152
REMARK   67  A    between atoms: _154  and  _156
REMARK   68  A    between atoms: _156  and  _157
REMARK   69  A    between atoms: _159  and  _161
REMARK   70  A    between atoms: _161  and  _162
REMARK   71  A    between atoms: _161  and  _164
REMARK   72  A    between atoms: _164  and  _165
REMARK   73  A    between atoms: _168  and  _170
REMARK   74  A    between atoms: _170  and  _171
REMARK   75  A    between atoms: _170  and  _173
REMARK   76  A    between atoms: _173  and  _174
REMARK   77  A    between atoms: _177  and  _179
REMARK   78  A    between atoms: _179  and  _180
REMARK   79  A    between atoms: _179  and  _182
REMARK   80  A    between atoms: _182  and  _183
REMARK   81  A    between atoms: _183  and  _184
REMARK   82  A    between atoms: _186  and  _188
REMARK   83  A    between atoms: _188  and  _189
REMARK   84  A    between atoms: _188  and  _191
REMARK   85  A    between atoms: _191  and  _192
REMARK   86  A    between atoms: _196  and  _197
REMARK   87  A    between atoms: _202  and  _204
REMARK   88  A    between atoms: _204  and  _205
REMARK   89  A    between atoms: _204  and  _207
REMARK   90  A    between atoms: _207  and  _208
REMARK   91  A    between atoms: _211  and  _213
REMARK   92  A    between atoms: _213  and  _214
REMARK   93  A    between atoms: _213  and  _216
REMARK   94  A    between atoms: _216  and  _217
REMARK   95  A    between atoms: _222  and  _224
REMARK   96  A    between atoms: _224  and  _225
REMARK   97  A    between atoms: _224  and  _227
REMARK   98  A    between atoms: _227  and  _228
REMARK   99  A    between atoms: _231  and  _233
REMARK  100  A    between atoms: _233  and  _234
REMARK  101  A    between atoms: _233  and  _236
REMARK  102  A    between atoms: _236  and  _237
REMARK  103  A    between atoms: _243  and  _245
REMARK  104  A    between atoms: _245  and  _246
REMARK  105  A    between atoms: _248  and  _250
REMARK  106  A    between atoms: _250  and  _251
REMARK  107  A    between atoms: _250  and  _253
REMARK  108  A    between atoms: _253  and  _254
REMARK  109  A    between atoms: _254  and  _255
REMARK  110  A    between atoms: _255  and  _256
REMARK  111  A    between atoms: _265  and  _267
REMARK  112  A    between atoms: _267  and  _268
REMARK  113  A    between atoms: _267  and  _270
REMARK  114  A    between atoms: _270  and  _271
REMARK  115  A    between atoms: _276  and  _278
REMARK  116  A    between atoms: _278  and  _279
REMARK  117  A    between atoms: _278  and  _281
REMARK  118  A    between atoms: _281  and  _282
REMARK  119  A    between atoms: _282  and  _283
REMARK  120  A    between atoms: _283  and  _284
REMARK  121  A    between atoms: _293  and  _295
REMARK  122  A    between atoms: _295  and  _296
REMARK  123  A    between atoms: _295  and  _298
REMARK  124  A    between atoms: _298  and  _299
REMARK  125  A    between atoms: _302  and  _304
REMARK  126  A    between atoms: _304  and  _305
REMARK  127  A    between atoms: _304  and  _307
REMARK  128  A    between atoms: _307  and  _308
REMARK  129  A    between atoms: _311  and  _313
REMARK  130  A    between atoms: _313  and  _314
REMARK  131  A    between atoms: _313  and  _316
REMARK  132  A    between atoms: _316  and  _317
REMARK  133  A    between atoms: _320  and  _322
REMARK  134  A    between atoms: _322  and  _323
REMARK  135  A    between atoms: _322  and  _325
REMARK  136  A    between atoms: _325  and  _326
REMARK  137  A    between atoms: _329  and  _331
REMARK  138  A    between atoms: _331  and  _332
REMARK  139  A    between atoms: _334  and  _336
REMARK  140  A    between atoms: _336  and  _337
REMARK  141  A    between atoms: _340  and  _342
REMARK  142  A    between atoms: _342  and  _343
REMARK  143  A    between atoms: _342  and  _345
REMARK  144  A    between atoms: _345  and  _346
REMARK  145  A    between atoms: _349  and  _351
REMARK  146  A    between atoms: _351  and  _352
REMARK  147  A    between atoms: _351  and  _354
REMARK  148  A    between atoms: _354  and  _355
REMARK  149  A    between atoms: _355  and  _357
REMARK  150  A    between atoms: _358  and  _360
REMARK  151  A    between atoms: _360  and  _361
REMARK  152  A    between atoms: _360  and  _363
REMARK  153  A    between atoms: _363  and  _364
REMARK  154  A    between atoms: _366  and  _368
REMARK  155  A    between atoms: _368  and  _369
REMARK  156  A    between atoms: _368  and  _371
REMARK  157  A    between atoms: _371  and  _372
REMARK  158  A    between atoms: _375  and  _377
REMARK  159  A    between atoms: _377  and  _378
REMARK  160  A    between atoms: _377  and  _380
REMARK  161  A    between atoms: _380  and  _381
REMARK  162  A    between atoms: _384  and  _386
REMARK  163  A    between atoms: _386  and  _387
REMARK  164  A    between atoms: _386  and  _389
REMARK  165  A    between atoms: _392  and  _394
REMARK  166  A    between atoms: _394  and  _395
REMARK  167  A    between atoms: _397  and  _399
REMARK  168  A    between atoms: _399  and  _400
REMARK  169  A    between atoms: _402  and  _404
REMARK  170  A    between atoms: _404  and  _405
REMARK  171  A    between atoms: _404  and  _407
REMARK  172  A    between atoms: _407  and  _408
REMARK  173  A    between atoms: _411  and  _413
REMARK  174  A    between atoms: _413  and  _414
REMARK  175  A    between atoms: _416  and  _418
REMARK  176  A    between atoms: _418  and  _419
REMARK  177  A    between atoms: _421  and  _423
REMARK  178  A    between atoms: _423  and  _424
REMARK  179  A    between atoms: _423  and  _426
REMARK  180  A    between atoms: _426  and  _427
REMARK  181  A    between atoms: _430  and  _432
REMARK  182  A    between atoms: _432  and  _433
REMARK  183  A    between atoms: _432  and  _435
REMARK  184  A    between atoms: _435  and  _436
REMARK  185  A    between atoms: _439  and  _441
REMARK  186  A    between atoms: _441  and  _442
REMARK  187  A    between atoms: _441  and  _444
REMARK  188  A    between atoms: _444  and  _445
REMARK  189  A    between atoms: _445  and  _446
REMARK  190  A    between atoms: _448  and  _450
REMARK  191  A    between atoms: _450  and  _451
REMARK  192  A    between atoms: _450  and  _453
REMARK  193  A    between atoms: _453  and  _454
REMARK  194  A    between atoms: _458  and  _459
REMARK  195  A    between atoms: _464  and  _466
REMARK  196  A    between atoms: _466  and  _467
REMARK  197  A    between atoms: _466  and  _469
REMARK  198  A    between atoms: _469  and  _470
REMARK  199  A    between atoms: _473  and  _475
REMARK  200  A    between atoms: _475  and  _476
REMARK  201  A    between atoms: _475  and  _478
REMARK  202  A    between atoms: _478  and  _479
REMARK  203  A    between atoms: _484  and  _486
REMARK  204  A    between atoms: _486  and  _487
REMARK  205  A    between atoms: _486  and  _489
REMARK  206  A    between atoms: _489  and  _490
REMARK  207  A    between atoms: _493  and  _495
REMARK  208  A    between atoms: _495  and  _496
REMARK  209  A    between atoms: _495  and  _498
REMARK  210  A    between atoms: _498  and  _499
REMARK  211  A    between atoms: _505  and  _507
REMARK  212  A    between atoms: _507  and  _508
REMARK  213  A    between atoms: _510  and  _512
REMARK  214  A    between atoms: _512  and  _513
REMARK  215  A    between atoms: _512  and  _515
REMARK  216  A    between atoms: _515  and  _516
REMARK  217  A    between atoms: _516  and  _517
REMARK  218  A    between atoms: _517  and  _518
REMARK  219  A    between atoms: _527  and  _529
REMARK  220  A    between atoms: _529  and  _530
REMARK  221  A    between atoms: _529  and  _532
REMARK  222  A    between atoms: _532  and  _533
REMARK                            x       y       z     vdW  Elec       q    Type
REMARK                         _______ _______ _______ _____ _____    ______ ____
ROOT
ATOM      1  O   HOH     1      22.557   1.430  26.275  0.00  0.00    +0.000 OA
ENDROOT
TORSDOF 0
REMARK  Name = ../refined-set-2016/3s45/3s45_pocket.pdb
REMARK  222 active torsions:
REMARK  status: ('A' for Active; 'I' for Inactive)
REMARK    1  A    between atoms: _1  and  _3
REMARK    2  A    between atoms: _3  and  _4
REMARK    3  A    between atoms: _3  and  _6
REMARK    4  A    between atoms: _6  and  _7
REMARK    5  A    between atoms: _7  and  _8
REMARK    6  A    between atoms: _8  and  _9
REMARK    7  A    between atoms: _18  and  _20
REMARK    8  A    between atoms: _20  and  _21
REMARK    9  A    between atoms: _20  and  _23
REMARK   10  A    between atoms: _23  and  _24
REMARK   11  A    between atoms: _27  and  _29
REMARK   12  A    between atoms: _29  and  _30
REMARK   13  A    between atoms: _29  and  _32
REMARK   14  A    between atoms: _32  and  _33
REMARK   15  A    between atoms: _36  and  _38
REMARK   16  A    between atoms: _38  and  _39
REMARK   17  A    between atoms: _38  and  _41
REMARK   18  A    between atoms: _41  and  _42
REMARK   19  A    between atoms: _45  and  _47
REMARK   20  A    between atoms: _47  and  _48
REMARK   21  A    between atoms: _47  and  _50
REMARK   22  A    between atoms: _50  and  _51
REMARK   23  A    between atoms: _54  and  _56
REMARK   24  A    between atoms: _56  and  _57
REMARK   25  A    between atoms: _59  and  _61
REMARK   26  A    between atoms: _61  and  _62
REMARK   27  A    between atoms: _65  and  _67
REMARK   28  A    between atoms: _67  and  _68
REMARK   29  A    between atoms: _67  and  _70
REMARK   30  A    between atoms: _70  and  _71
REMARK   31  A    between atoms: _74  and  _76
REMARK   32  A    between atoms: _76  and  _77
REMARK   33  A    between atoms: _76  and  _79
REMARK   34  A    between atoms: _79  and  _80
REMARK   35  A    between atoms: _83  and  _85
REMARK   36  A    between atoms: _85  and  _86
REMARK   37  A    between atoms: _85  and  _88
REMARK   38  A    between atoms: _88  and  _89
REMARK   39  A    between atoms: _91  and  _93
REMARK   40  A    between atoms: _93  and  _94
REMARK   41  A    between atoms: _93  and  _96
REMARK   42  A    between atoms: _96  and  _97
REMARK   43  A    between atoms: _100  and  _102
REMARK   44  A    between atoms: _102  and  _103
REMARK   45  A    between atoms: _102  and  _105
REMARK   46  A    between atoms: _105  and  _106
REMARK   47  A    between atoms: _106  and  _107
REMARK   48  A    between atoms: _107  and  _108
REMARK   49  A    between atoms: _108  and  _109
REMARK   50  A    between atoms: _113  and  _115
REMARK   51  A    between atoms: _115  and  _116
REMARK   52  A    between atoms: _115  and  _118
REMARK   53  A    between atoms: _118  and  _119
REMARK   54  A    between atoms: _122  and  _124
REMARK   55  A    between atoms: _124  and  _125
REMARK   56  A    between atoms: _124  and  _127
REMARK   57  A    between atoms: _130  and  _132
REMARK   58  A    between atoms: _132  and  _133
REMARK   59  A    between atoms: _135  and  _137
REMARK   60  A    between atoms: _137  and  _138
REMARK   61  A    between atoms: _140  and  _142
REMARK   62  A    between atoms: _142  and  _143
REMARK   63  A    between atoms: _142  and  _145
REMARK   64  A    between atoms: _145  and  _146
REMARK   65  A    between atoms: _149  and  _151
REMARK   66  A    between atoms: _151  and  _152
REMARK   67  A    between atoms: _154  and  _156
REMARK   68  A    between atoms: _156  and  _157
REMARK   69  A    between atoms: _159  and  _161
REMARK   70  A    between atoms: _161  and  _162
REMARK   71  A    between atoms: _161  and  _164
REMARK   72  A    between atoms: _164  and  _165
REMARK   73  A    between atoms: _168  and  _170
REMARK   74  A    between atoms: _170  and  _171
REMARK   75  A    between atoms: _170  and  _173
REMARK   76  A    between atoms: _173  and  _174
REMARK   77  A    between atoms: _177  and  _179
REMARK   78  A    between atoms: _179  and  _180
REMARK   79  A    between atoms: _179  and  _182
REMARK   80  A    between atoms: _182  and  _183
REMARK   81  A    between atoms: _183  and  _184
REMARK   82  A    between atoms: _186  and  _188
REMARK   83  A    between atoms: _188  and  _189
REMARK   84  A    between atoms: _188  and  _191
REMARK   85  A    between atoms: _191  and  _192
REMARK   86  A    between atoms: _196  and  _197
REMARK   87  A    between atoms: _202  and  _204
REMARK   88  A    between atoms: _204  and  _205
REMARK   89  A    between atoms: _204  and  _207
REMARK   90  A    between atoms: _207  and  _208
REMARK   91  A    between atoms: _211  and  _213
REMARK   92  A    between atoms: _213  and  _214
REMARK   93  A    between atoms: _213  and  _216
REMARK   94  A    between atoms: _216  and  _217
REMARK   95  A    between atoms: _222  and  _224
REMARK   96  A    between atoms: _224  and  _225
REMARK   97  A    between atoms: _224  and  _227
REMARK   98  A    between atoms: _227  and  _228
REMARK   99  A    between atoms: _231  and  _233
REMARK  100  A    between atoms: _233  and  _234
REMARK  101  A    between atoms: _233  and  _236
REMARK  102  A    between atoms: _236  and  _237
REMARK  103  A    between atoms: _243  and  _245
REMARK  104  A    between atoms: _245  and  _246
REMARK  105  A    between atoms: _248  and  _250
REMARK  106  A    between atoms: _250  and  _251
REMARK  107  A    between atoms: _250  and  _253
REMARK  108  A    between atoms: _253  and  _254
REMARK  109  A    between atoms: _254  and  _255
REMARK  110  A    between atoms: _255  and  _256
REMARK  111  A    between atoms: _265  and  _267
REMARK  112  A    between atoms: _267  and  _268
REMARK  113  A    between atoms: _267  and  _270
REMARK  114  A    between atoms: _270  and  _271
REMARK  115  A    between atoms: _276  and  _278
REMARK  116  A    between atoms: _278  and  _279
REMARK  117  A    between atoms: _278  and  _281
REMARK  118  A    between atoms: _281  and  _282
REMARK  119  A    between atoms: _282  and  _283
REMARK  120  A    between atoms: _283  and  _284
REMARK  121  A    between atoms: _293  and  _295
REMARK  122  A    between atoms: _295  and  _296
REMARK  123  A    between atoms: _295  and  _298
REMARK  124  A    between atoms: _298  and  _299
REMARK  125  A    between atoms: _302  and  _304
REMARK  126  A    between atoms: _304  and  _305
REMARK  127  A    between atoms: _304  and  _307
REMARK  128  A    between atoms: _307  and  _308
REMARK  129  A    between atoms: _311  and  _313
REMARK  130  A    between atoms: _313  and  _314
REMARK  131  A    between atoms: _313  and  _316
REMARK  132  A    between atoms: _316  and  _317
REMARK  133  A    between atoms: _320  and  _322
REMARK  134  A    between atoms: _322  and  _323
REMARK  135  A    between atoms: _322  and  _325
REMARK  136  A    between atoms: _325  and  _326
REMARK  137  A    between atoms: _329  and  _331
REMARK  138  A    between atoms: _331  and  _332
REMARK  139  A    between atoms: _334  and  _336
REMARK  140  A    between atoms: _336  and  _337
REMARK  141  A    between atoms: _340  and  _342
REMARK  142  A    between atoms: _342  and  _343
REMARK  143  A    between atoms: _342  and  _345
REMARK  144  A    between atoms: _345  and  _346
REMARK  145  A    between atoms: _349  and  _351
REMARK  146  A    between atoms: _351  and  _352
REMARK  147  A    between atoms: _351  and  _354
REMARK  148  A    between atoms: _354  and  _355
REMARK  149  A    between atoms: _355  and  _357
REMARK  150  A    between atoms: _358  and  _360
REMARK  151  A    between atoms: _360  and  _361
REMARK  152  A    between atoms: _360  and  _363
REMARK  153  A    between atoms: _363  and  _364
REMARK  154  A    between atoms: _366  and  _368
REMARK  155  A    between atoms: _368  and  _369
REMARK  156  A    between atoms: _368  and  _371
REMARK  157  A    between atoms: _371  and  _372
REMARK  158  A    between atoms: _375  and  _377
REMARK  159  A    between atoms: _377  and  _378
REMARK  160  A    between atoms: _377  and  _380
REMARK  161  A    between atoms: _380  and  _381
REMARK  162  A    between atoms: _384  and  _386
REMARK  163  A    between atoms: _386  and  _387
REMARK  164  A    between atoms: _386  and  _389
REMARK  165  A    between atoms: _392  and  _394
REMARK  166  A    between atoms: _394  and  _395
REMARK  167  A    between atoms: _397  and  _399
REMARK  168  A    between atoms: _399  and  _400
REMARK  169  A    between atoms: _402  and  _404
REMARK  170  A    between atoms: _404  and  _405
REMARK  171  A    between atoms: _404  and  _407
REMARK  172  A    between atoms: _407  and  _408
REMARK  173  A    between atoms: _411  and  _413
REMARK  174  A    between atoms: _413  and  _414
REMARK  175  A    between atoms: _416  and  _418
REMARK  176  A    between atoms: _418  and  _419
REMARK  177  A    between atoms: _421  and  _423
REMARK  178  A    between atoms: _423  and  _424
REMARK  179  A    between atoms: _423  and  _426
REMARK  180  A    between atoms: _426  and  _427
REMARK  181  A    between atoms: _430  and  _432
REMARK  182  A    between atoms: _432  and  _433
REMARK  183  A    between atoms: _432  and  _435
REMARK  184  A    between atoms: _435  and  _436
REMARK  185  A    between atoms: _439  and  _441
REMARK  186  A    between atoms: _441  and  _442
REMARK  187  A    between atoms: _441  and  _444
REMARK  188  A    between atoms: _444  and  _445
REMARK  189  A    between atoms: _445  and  _446
REMARK  190  A    between atoms: _448  and  _450
REMARK  191  A    between atoms: _450  and  _451
REMARK  192  A    between atoms: _450  and  _453
REMARK  193  A    between atoms: _453  and  _454
REMARK  194  A    between atoms: _458  and  _459
REMARK  195  A    between atoms: _464  and  _466
REMARK  196  A    between atoms: _466  and  _467
REMARK  197  A    between atoms: _466  and  _469
REMARK  198  A    between atoms: _469  and  _470
REMARK  199  A    between atoms: _473  and  _475
REMARK  200  A    between atoms: _475  and  _476
REMARK  201  A    between atoms: _475  and  _478
REMARK  202  A    between atoms: _478  and  _479
REMARK  203  A    between atoms: _484  and  _486
REMARK  204  A    between atoms: _486  and  _487
REMARK  205  A    between atoms: _486  and  _489
REMARK  206  A    between atoms: _489  and  _490
REMARK  207  A    between atoms: _493  and  _495
REMARK  208  A    between atoms: _495  and  _496
REMARK  209  A    between atoms: _495  and  _498
REMARK  210  A    between atoms: _498  and  _499
REMARK  211  A    between atoms: _505  and  _507
REMARK  212  A    between atoms: _507  and  _508
REMARK  213  A    between atoms: _510  and  _512
REMARK  214  A    between atoms: _512  and  _513
REMARK  215  A    between atoms: _512  and  _515
REMARK  216  A    between atoms: _515  and  _516
REMARK  217  A    between atoms: _516  and  _517
REMARK  218  A    between atoms: _517  and  _518
REMARK  219  A    between atoms: _527  and  _529
REMARK  220  A    between atoms: _529  and  _530
REMARK  221  A    between atoms: _529  and  _532
REMARK  222  A    between atoms: _532  and  _533
REMARK                            x       y       z     vdW  Elec       q    Type
REMARK                         _______ _______ _______ _____ _____    ______ ____
ROOT
ATOM      1  O   HOH     1      33.222  15.171  13.254  0.00  0.00    +0.000 OA
ENDROOT
TORSDOF 0
