REMARK  Name = ../refined-set-2016/3oy0/3oy0_pocket.pdb
REMARK  163 active torsions:
REMARK  status: ('A' for Active; 'I' for Inactive)
REMARK    1  A    between atoms: _1  and  _3
REMARK    2  A    between atoms: _3  and  _4
REMARK    3  A    between atoms: _3  and  _6
REMARK    4  A    between atoms: _6  and  _7
REMARK    5  A    between atoms: _17  and  _19
REMARK    6  A    between atoms: _19  and  _20
REMARK    7  A    between atoms: _19  and  _22
REMARK    8  A    between atoms: _22  and  _23
REMARK    9  A    between atoms: _28  and  _29
REMARK   10  A    between atoms: _31  and  _33
REMARK   11  A    between atoms: _33  and  _34
REMARK   12  A    between atoms: _33  and  _36
REMARK   13  A    between atoms: _36  and  _37
REMARK   14  A    between atoms: _40  and  _41
REMARK   15  A    between atoms: _46  and  _48
REMARK   16  A    between atoms: _48  and  _49
REMARK   17  A    between atoms: _48  and  _51
REMARK   18  A    between atoms: _51  and  _52
REMARK   19  A    between atoms: _55  and  _57
REMARK   20  A    between atoms: _57  and  _58
REMARK   21  A    between atoms: _57  and  _60
REMARK   22  A    between atoms: _60  and  _61
REMARK   23  A    between atoms: _66  and  _68
REMARK   24  A    between atoms: _68  and  _69
REMARK   25  A    between atoms: _68  and  _71
REMARK   26  A    between atoms: _71  and  _72
REMARK   27  A    between atoms: _77  and  _79
REMARK   28  A    between atoms: _79  and  _80
REMARK   29  A    between atoms: _83  and  _85
REMARK   30  A    between atoms: _85  and  _86
REMARK   31  A    between atoms: _85  and  _88
REMARK   32  A    between atoms: _88  and  _89
REMARK   33  A    between atoms: _94  and  _96
REMARK   34  A    between atoms: _96  and  _97
REMARK   35  A    between atoms: _96  and  _99
REMARK   36  A    between atoms: _99  and  _100
REMARK   37  A    between atoms: _100  and  _101
REMARK   38  A    between atoms: _104  and  _106
REMARK   39  A    between atoms: _106  and  _107
REMARK   40  A    between atoms: _106  and  _109
REMARK   41  A    between atoms: _109  and  _110
REMARK   42  A    between atoms: _113  and  _115
REMARK   43  A    between atoms: _115  and  _116
REMARK   44  A    between atoms: _115  and  _118
REMARK   45  A    between atoms: _118  and  _119
REMARK   46  A    between atoms: _119  and  _120
REMARK   47  A    between atoms: _125  and  _127
REMARK   48  A    between atoms: _127  and  _128
REMARK   49  A    between atoms: _127  and  _130
REMARK   50  A    between atoms: _130  and  _131
REMARK   51  A    between atoms: _137  and  _139
REMARK   52  A    between atoms: _150  and  _153
REMARK   53  A    between atoms: _153  and  _154
REMARK   54  A    between atoms: _162  and  _163
REMARK   55  A    between atoms: _171  and  _173
REMARK   56  A    between atoms: _173  and  _174
REMARK   57  A    between atoms: _173  and  _176
REMARK   58  A    between atoms: _176  and  _177
REMARK   59  A    between atoms: _177  and  _178
REMARK   60  A    between atoms: _181  and  _183
REMARK   61  A    between atoms: _183  and  _184
REMARK   62  A    between atoms: _183  and  _186
REMARK   63  A    between atoms: _186  and  _187
REMARK   64  A    between atoms: _192  and  _194
REMARK   65  A    between atoms: _194  and  _195
REMARK   66  A    between atoms: _194  and  _197
REMARK   67  A    between atoms: _197  and  _198
REMARK   68  A    between atoms: _198  and  _199
REMARK   69  A    between atoms: _202  and  _204
REMARK   70  A    between atoms: _204  and  _205
REMARK   71  A    between atoms: _204  and  _207
REMARK   72  A    between atoms: _207  and  _208
REMARK   73  A    between atoms: _211  and  _213
REMARK   74  A    between atoms: _213  and  _214
REMARK   75  A    between atoms: _213  and  _216
REMARK   76  A    between atoms: _216  and  _217
REMARK   77  A    between atoms: _218  and  ZN_450
REMARK   78  A    between atoms: _222  and  _224
REMARK   79  A    between atoms: _224  and  _225
REMARK   80  A    between atoms: _224  and  _227
REMARK   81  A    between atoms: _227  and  _228
REMARK   82  A    between atoms: _231  and  _233
REMARK   83  A    between atoms: _233  and  _234
REMARK   84  A    between atoms: _233  and  _236
REMARK   85  A    between atoms: _239  and  _241
REMARK   86  A    between atoms: _241  and  _242
REMARK   87  A    between atoms: _241  and  _244
REMARK   88  A    between atoms: _244  and  _245
REMARK   89  A    between atoms: _250  and  _252
REMARK   90  A    between atoms: _252  and  _253
REMARK   91  A    between atoms: _252  and  _255
REMARK   92  A    between atoms: _255  and  _256
REMARK   93  A    between atoms: _262  and  _264
REMARK   94  A    between atoms: _264  and  _265
REMARK   95  A    between atoms: _267  and  _269
REMARK   96  A    between atoms: _269  and  _270
REMARK   97  A    between atoms: _269  and  _272
REMARK   98  A    between atoms: _275  and  _277
REMARK   99  A    between atoms: _277  and  _278
REMARK  100  A    between atoms: _277  and  _280
REMARK  101  A    between atoms: _280  and  _281
REMARK  102  A    between atoms: _281  and  _282
REMARK  103  A    between atoms: _287  and  _289
REMARK  104  A    between atoms: _289  and  _290
REMARK  105  A    between atoms: _289  and  _292
REMARK  106  A    between atoms: _292  and  _293
REMARK  107  A    between atoms: _296  and  _298
REMARK  108  A    between atoms: _298  and  _299
REMARK  109  A    between atoms: _302  and  _304
REMARK  110  A    between atoms: _304  and  _305
REMARK  111  A    between atoms: _304  and  _307
REMARK  112  A    between atoms: _310  and  _312
REMARK  113  A    between atoms: _312  and  _313
REMARK  114  A    between atoms: _312  and  _315
REMARK  115  A    between atoms: _315  and  _316
REMARK  116  A    between atoms: _319  and  _321
REMARK  117  A    between atoms: _321  and  _322
REMARK  118  A    between atoms: _324  and  _326
REMARK  119  A    between atoms: _326  and  _327
REMARK  120  A    between atoms: _326  and  _329
REMARK  121  A    between atoms: _329  and  _330
REMARK  122  A    between atoms: _332  and  _334
REMARK  123  A    between atoms: _334  and  _335
REMARK  124  A    between atoms: _334  and  _337
REMARK  125  A    between atoms: _337  and  _338
REMARK  126  A    between atoms: _341  and  _343
REMARK  127  A    between atoms: _343  and  _344
REMARK  128  A    between atoms: _343  and  _346
REMARK  129  A    between atoms: _346  and  _347
REMARK  130  A    between atoms: _350  and  _352
REMARK  131  A    between atoms: _352  and  _353
REMARK  132  A    between atoms: _352  and  _355
REMARK  133  A    between atoms: _355  and  _356
REMARK  134  A    between atoms: _360  and  _361
REMARK  135  A    between atoms: _367  and  _368
REMARK  136  A    between atoms: _373  and  _375
REMARK  137  A    between atoms: _375  and  _376
REMARK  138  A    between atoms: _375  and  _378
REMARK  139  A    between atoms: _378  and  _379
REMARK  140  A    between atoms: _382  and  _384
REMARK  141  A    between atoms: _384  and  _385
REMARK  142  A    between atoms: _384  and  _387
REMARK  143  A    between atoms: _387  and  _388
REMARK  144  A    between atoms: _391  and  _393
REMARK  145  A    between atoms: _393  and  _394
REMARK  146  A    between atoms: _393  and  _396
REMARK  147  A    between atoms: _398  and  _400
REMARK  148  A    between atoms: _400  and  _401
REMARK  149  A    between atoms: _400  and  _403
REMARK  150  A    between atoms: _406  and  _408
REMARK  151  A    between atoms: _408  and  _409
REMARK  152  A    between atoms: _408  and  _411
REMARK  153  A    between atoms: _411  and  _412
REMARK  154  A    between atoms: _422  and  _424
REMARK  155  A    between atoms: _424  and  _425
REMARK  156  A    between atoms: _424  and  _427
REMARK  157  A    between atoms: _427  and  _428
REMARK  158  A    between atoms: _433  and  _435
REMARK  159  A    between atoms: _435  and  _436
REMARK  160  A    between atoms: _435  and  _438
REMARK  161  A    between atoms: _438  and  _439
REMARK  162  A    between atoms: _439  and  _440
REMARK  163  A    between atoms: _440  and  _441
REMARK                            x       y       z     vdW  Elec       q    Type
REMARK                         _______ _______ _______ _____ _____    ______ ____
ROOT
ATOM      1  CG  TRP A   1       5.876   0.225  12.209  0.00  0.00    -0.002 A 
ATOM      2  CD2 TRP A   1       4.508  -0.223  12.128  0.00  0.00    +0.013 A 
ATOM      3  CE3 TRP A   1       3.869  -1.462  12.333  0.00  0.00    +0.001 A 
ATOM      4  CZ3 TRP A   1       2.485  -1.537  12.171  0.00  0.00    +0.000 A 
ATOM      5  CH2 TRP A   1       1.746  -0.416  11.811  0.00  0.00    +0.001 A 
ATOM      6  CZ2 TRP A   1       2.338   0.808  11.605  0.00  0.00    +0.017 A 
ATOM      7  CE2 TRP A   1       3.724   0.895  11.756  0.00  0.00    +0.056 A 
ATOM      8  NE1 TRP A   1       4.567   1.978  11.631  0.00  0.00    -0.352 N 
ATOM      9  HE1 TRP A   1       4.275   2.943  11.376  0.00  0.00    +0.166 HD
ATOM     10  CD1 TRP A   1       5.858   1.579  11.897  0.00  0.00    +0.068 A 
ENDROOT
BRANCH   1  11
ATOM     11  CB  TRP A   1       7.061  -0.596  12.580  0.00  0.00    +0.053 C 
BRANCH  11  12
ATOM     12  CA  TRP A   1       7.747  -1.259  11.388  0.00  0.00    +0.137 C 
BRANCH  12  13
ATOM     13  N   TRP A   1       8.390  -0.262  10.552  0.00  0.00    -0.239 NA
ATOM     14  H   TRP A   1       8.170   0.746  10.681  0.00  0.00    +0.142 HD
ENDBRANCH  12  13
BRANCH  12  15
ATOM     15  C   TRP A   1       6.744  -2.072  10.561  0.00  0.00    +0.224 C 
ATOM     16  O   TRP A   1       6.197  -1.595   9.544  0.00  0.00    -0.287 OA
ENDBRANCH  12  15
ENDBRANCH  11  12
ENDBRANCH   1  11
TORSDOF 4
REMARK  Name = ../refined-set-2016/3oy0/3oy0_pocket.pdb
REMARK  163 active torsions:
REMARK  status: ('A' for Active; 'I' for Inactive)
REMARK    1  A    between atoms: _1  and  _3
REMARK    2  A    between atoms: _3  and  _4
REMARK    3  A    between atoms: _3  and  _6
REMARK    4  A    between atoms: _6  and  _7
REMARK    5  A    between atoms: _17  and  _19
REMARK    6  A    between atoms: _19  and  _20
REMARK    7  A    between atoms: _19  and  _22
REMARK    8  A    between atoms: _22  and  _23
REMARK    9  A    between atoms: _28  and  _29
REMARK   10  A    between atoms: _31  and  _33
REMARK   11  A    between atoms: _33  and  _34
REMARK   12  A    between atoms: _33  and  _36
REMARK   13  A    between atoms: _36  and  _37
REMARK   14  A    between atoms: _40  and  _41
REMARK   15  A    between atoms: _46  and  _48
REMARK   16  A    between atoms: _48  and  _49
REMARK   17  A    between atoms: _48  and  _51
REMARK   18  A    between atoms: _51  and  _52
REMARK   19  A    between atoms: _55  and  _57
REMARK   20  A    between atoms: _57  and  _58
REMARK   21  A    between atoms: _57  and  _60
REMARK   22  A    between atoms: _60  and  _61
REMARK   23  A    between atoms: _66  and  _68
REMARK   24  A    between atoms: _68  and  _69
REMARK   25  A    between atoms: _68  and  _71
REMARK   26  A    between atoms: _71  and  _72
REMARK   27  A    between atoms: _77  and  _79
REMARK   28  A    between atoms: _79  and  _80
REMARK   29  A    between atoms: _83  and  _85
REMARK   30  A    between atoms: _85  and  _86
REMARK   31  A    between atoms: _85  and  _88
REMARK   32  A    between atoms: _88  and  _89
REMARK   33  A    between atoms: _94  and  _96
REMARK   34  A    between atoms: _96  and  _97
REMARK   35  A    between atoms: _96  and  _99
REMARK   36  A    between atoms: _99  and  _100
REMARK   37  A    between atoms: _100  and  _101
REMARK   38  A    between atoms: _104  and  _106
REMARK   39  A    between atoms: _106  and  _107
REMARK   40  A    between atoms: _106  and  _109
REMARK   41  A    between atoms: _109  and  _110
REMARK   42  A    between atoms: _113  and  _115
REMARK   43  A    between atoms: _115  and  _116
REMARK   44  A    between atoms: _115  and  _118
REMARK   45  A    between atoms: _118  and  _119
REMARK   46  A    between atoms: _119  and  _120
REMARK   47  A    between atoms: _125  and  _127
REMARK   48  A    between atoms: _127  and  _128
REMARK   49  A    between atoms: _127  and  _130
REMARK   50  A    between atoms: _130  and  _131
REMARK   51  A    between atoms: _137  and  _139
REMARK   52  A    between atoms: _150  and  _153
REMARK   53  A    between atoms: _153  and  _154
REMARK   54  A    between atoms: _162  and  _163
REMARK   55  A    between atoms: _171  and  _173
REMARK   56  A    between atoms: _173  and  _174
REMARK   57  A    between atoms: _173  and  _176
REMARK   58  A    between atoms: _176  and  _177
REMARK   59  A    between atoms: _177  and  _178
REMARK   60  A    between atoms: _181  and  _183
REMARK   61  A    between atoms: _183  and  _184
REMARK   62  A    between atoms: _183  and  _186
REMARK   63  A    between atoms: _186  and  _187
REMARK   64  A    between atoms: _192  and  _194
REMARK   65  A    between atoms: _194  and  _195
REMARK   66  A    between atoms: _194  and  _197
REMARK   67  A    between atoms: _197  and  _198
REMARK   68  A    between atoms: _198  and  _199
REMARK   69  A    between atoms: _202  and  _204
REMARK   70  A    between atoms: _204  and  _205
REMARK   71  A    between atoms: _204  and  _207
REMARK   72  A    between atoms: _207  and  _208
REMARK   73  A    between atoms: _211  and  _213
REMARK   74  A    between atoms: _213  and  _214
REMARK   75  A    between atoms: _213  and  _216
REMARK   76  A    between atoms: _216  and  _217
REMARK   77  A    between atoms: _218  and  ZN_450
REMARK   78  A    between atoms: _222  and  _224
REMARK   79  A    between atoms: _224  and  _225
REMARK   80  A    between atoms: _224  and  _227
REMARK   81  A    between atoms: _227  and  _228
REMARK   82  A    between atoms: _231  and  _233
REMARK   83  A    between atoms: _233  and  _234
REMARK   84  A    between atoms: _233  and  _236
REMARK   85  A    between atoms: _239  and  _241
REMARK   86  A    between atoms: _241  and  _242
REMARK   87  A    between atoms: _241  and  _244
REMARK   88  A    between atoms: _244  and  _245
REMARK   89  A    between atoms: _250  and  _252
REMARK   90  A    between atoms: _252  and  _253
REMARK   91  A    between atoms: _252  and  _255
REMARK   92  A    between atoms: _255  and  _256
REMARK   93  A    between atoms: _262  and  _264
REMARK   94  A    between atoms: _264  and  _265
REMARK   95  A    between atoms: _267  and  _269
REMARK   96  A    between atoms: _269  and  _270
REMARK   97  A    between atoms: _269  and  _272
REMARK   98  A    between atoms: _275  and  _277
REMARK   99  A    between atoms: _277  and  _278
REMARK  100  A    between atoms: _277  and  _280
REMARK  101  A    between atoms: _280  and  _281
REMARK  102  A    between atoms: _281  and  _282
REMARK  103  A    between atoms: _287  and  _289
REMARK  104  A    between atoms: _289  and  _290
REMARK  105  A    between atoms: _289  and  _292
REMARK  106  A    between atoms: _292  and  _293
REMARK  107  A    between atoms: _296  and  _298
REMARK  108  A    between atoms: _298  and  _299
REMARK  109  A    between atoms: _302  and  _304
REMARK  110  A    between atoms: _304  and  _305
REMARK  111  A    between atoms: _304  and  _307
REMARK  112  A    between atoms: _310  and  _312
REMARK  113  A    between atoms: _312  and  _313
REMARK  114  A    between atoms: _312  and  _315
REMARK  115  A    between atoms: _315  and  _316
REMARK  116  A    between atoms: _319  and  _321
REMARK  117  A    between atoms: _321  and  _322
REMARK  118  A    between atoms: _324  and  _326
REMARK  119  A    between atoms: _326  and  _327
REMARK  120  A    between atoms: _326  and  _329
REMARK  121  A    between atoms: _329  and  _330
REMARK  122  A    between atoms: _332  and  _334
REMARK  123  A    between atoms: _334  and  _335
REMARK  124  A    between atoms: _334  and  _337
REMARK  125  A    between atoms: _337  and  _338
REMARK  126  A    between atoms: _341  and  _343
REMARK  127  A    between atoms: _343  and  _344
REMARK  128  A    between atoms: _343  and  _346
REMARK  129  A    between atoms: _346  and  _347
REMARK  130  A    between atoms: _350  and  _352
REMARK  131  A    between atoms: _352  and  _353
REMARK  132  A    between atoms: _352  and  _355
REMARK  133  A    between atoms: _355  and  _356
REMARK  134  A    between atoms: _360  and  _361
REMARK  135  A    between atoms: _367  and  _368
REMARK  136  A    between atoms: _373  and  _375
REMARK  137  A    between atoms: _375  and  _376
REMARK  138  A    between atoms: _375  and  _378
REMARK  139  A    between atoms: _378  and  _379
REMARK  140  A    between atoms: _382  and  _384
REMARK  141  A    between atoms: _384  and  _385
REMARK  142  A    between atoms: _384  and  _387
REMARK  143  A    between atoms: _387  and  _388
REMARK  144  A    between atoms: _391  and  _393
REMARK  145  A    between atoms: _393  and  _394
REMARK  146  A    between atoms: _393  and  _396
REMARK  147  A    between atoms: _398  and  _400
REMARK  148  A    between atoms: _400  and  _401
REMARK  149  A    between atoms: _400  and  _403
REMARK  150  A    between atoms: _406  and  _408
REMARK  151  A    between atoms: _408  and  _409
REMARK  152  A    between atoms: _408  and  _411
REMARK  153  A    between atoms: _411  and  _412
REMARK  154  A    between atoms: _422  and  _424
REMARK  155  A    between atoms: _424  and  _425
REMARK  156  A    between atoms: _424  and  _427
REMARK  157  A    between atoms: _427  and  _428
REMARK  158  A    between atoms: _433  and  _435
REMARK  159  A    between atoms: _435  and  _436
REMARK  160  A    between atoms: _435  and  _438
REMARK  161  A    between atoms: _438  and  _439
REMARK  162  A    between atoms: _439  and  _440
REMARK  163  A    between atoms: _440  and  _441
REMARK                            x       y       z     vdW  Elec       q    Type
REMARK                         _______ _______ _______ _____ _____    ______ ____
ROOT
ATOM      1  CG  TYR A   1       2.012  -6.827  11.809  0.00  0.00    -0.020 A 
ATOM      2  CD2 TYR A   1       1.593  -6.844  13.130  0.00  0.00    -0.001 A 
ATOM      3  CE2 TYR A   1       0.739  -5.864  13.610  0.00  0.00    +0.036 A 
ATOM      4  CZ  TYR A   1       0.260  -4.906  12.755  0.00  0.00    +0.134 A 
ATOM      5  CE1 TYR A   1       0.671  -4.864  11.429  0.00  0.00    +0.036 A 
ATOM      6  CD1 TYR A   1       1.546  -5.825  10.977  0.00  0.00    -0.001 A 
ENDROOT
BRANCH   4   7
ATOM      7  OH  TYR A   1      -0.582  -3.954  13.218  0.00  0.00    -0.506 OA
ATOM      8  HH  TYR A   1      -0.777  -4.124  14.174  0.00  0.00    +0.292 HD
ENDBRANCH   4   7
BRANCH   1   9
ATOM      9  CB  TYR A   1       2.957  -7.900  11.299  0.00  0.00    +0.051 C 
BRANCH   9  10
ATOM     10  CA  TYR A   1       4.420  -7.608  11.560  0.00  0.00    +0.137 C 
BRANCH  10  11
ATOM     11  N   TYR A   1       4.858  -6.449  10.781  0.00  0.00    -0.239 NA
ATOM     12  H   TYR A   1       4.961  -6.545   9.751  0.00  0.00    +0.142 HD
ENDBRANCH  10  11
BRANCH  10  13
ATOM     13  C   TYR A   1       5.252  -8.848  11.255  0.00  0.00    +0.224 C 
ATOM     14  O   TYR A   1       4.887  -9.967  11.596  0.00  0.00    -0.287 OA
ENDBRANCH  10  13
ENDBRANCH   9  10
ENDBRANCH   1   9
TORSDOF 5
REMARK  Name = ../refined-set-2016/3oy0/3oy0_pocket.pdb
REMARK  163 active torsions:
REMARK  status: ('A' for Active; 'I' for Inactive)
REMARK    1  A    between atoms: _1  and  _3
REMARK    2  A    between atoms: _3  and  _4
REMARK    3  A    between atoms: _3  and  _6
REMARK    4  A    between atoms: _6  and  _7
REMARK    5  A    between atoms: _17  and  _19
REMARK    6  A    between atoms: _19  and  _20
REMARK    7  A    between atoms: _19  and  _22
REMARK    8  A    between atoms: _22  and  _23
REMARK    9  A    between atoms: _28  and  _29
REMARK   10  A    between atoms: _31  and  _33
REMARK   11  A    between atoms: _33  and  _34
REMARK   12  A    between atoms: _33  and  _36
REMARK   13  A    between atoms: _36  and  _37
REMARK   14  A    between atoms: _40  and  _41
REMARK   15  A    between atoms: _46  and  _48
REMARK   16  A    between atoms: _48  and  _49
REMARK   17  A    between atoms: _48  and  _51
REMARK   18  A    between atoms: _51  and  _52
REMARK   19  A    between atoms: _55  and  _57
REMARK   20  A    between atoms: _57  and  _58
REMARK   21  A    between atoms: _57  and  _60
REMARK   22  A    between atoms: _60  and  _61
REMARK   23  A    between atoms: _66  and  _68
REMARK   24  A    between atoms: _68  and  _69
REMARK   25  A    between atoms: _68  and  _71
REMARK   26  A    between atoms: _71  and  _72
REMARK   27  A    between atoms: _77  and  _79
REMARK   28  A    between atoms: _79  and  _80
REMARK   29  A    between atoms: _83  and  _85
REMARK   30  A    between atoms: _85  and  _86
REMARK   31  A    between atoms: _85  and  _88
REMARK   32  A    between atoms: _88  and  _89
REMARK   33  A    between atoms: _94  and  _96
REMARK   34  A    between atoms: _96  and  _97
REMARK   35  A    between atoms: _96  and  _99
REMARK   36  A    between atoms: _99  and  _100
REMARK   37  A    between atoms: _100  and  _101
REMARK   38  A    between atoms: _104  and  _106
REMARK   39  A    between atoms: _106  and  _107
REMARK   40  A    between atoms: _106  and  _109
REMARK   41  A    between atoms: _109  and  _110
REMARK   42  A    between atoms: _113  and  _115
REMARK   43  A    between atoms: _115  and  _116
REMARK   44  A    between atoms: _115  and  _118
REMARK   45  A    between atoms: _118  and  _119
REMARK   46  A    between atoms: _119  and  _120
REMARK   47  A    between atoms: _125  and  _127
REMARK   48  A    between atoms: _127  and  _128
REMARK   49  A    between atoms: _127  and  _130
REMARK   50  A    between atoms: _130  and  _131
REMARK   51  A    between atoms: _137  and  _139
REMARK   52  A    between atoms: _150  and  _153
REMARK   53  A    between atoms: _153  and  _154
REMARK   54  A    between atoms: _162  and  _163
REMARK   55  A    between atoms: _171  and  _173
REMARK   56  A    between atoms: _173  and  _174
REMARK   57  A    between atoms: _173  and  _176
REMARK   58  A    between atoms: _176  and  _177
REMARK   59  A    between atoms: _177  and  _178
REMARK   60  A    between atoms: _181  and  _183
REMARK   61  A    between atoms: _183  and  _184
REMARK   62  A    between atoms: _183  and  _186
REMARK   63  A    between atoms: _186  and  _187
REMARK   64  A    between atoms: _192  and  _194
REMARK   65  A    between atoms: _194  and  _195
REMARK   66  A    between atoms: _194  and  _197
REMARK   67  A    between atoms: _197  and  _198
REMARK   68  A    between atoms: _198  and  _199
REMARK   69  A    between atoms: _202  and  _204
REMARK   70  A    between atoms: _204  and  _205
REMARK   71  A    between atoms: _204  and  _207
REMARK   72  A    between atoms: _207  and  _208
REMARK   73  A    between atoms: _211  and  _213
REMARK   74  A    between atoms: _213  and  _214
REMARK   75  A    between atoms: _213  and  _216
REMARK   76  A    between atoms: _216  and  _217
REMARK   77  A    between atoms: _218  and  ZN_450
REMARK   78  A    between atoms: _222  and  _224
REMARK   79  A    between atoms: _224  and  _225
REMARK   80  A    between atoms: _224  and  _227
REMARK   81  A    between atoms: _227  and  _228
REMARK   82  A    between atoms: _231  and  _233
REMARK   83  A    between atoms: _233  and  _234
REMARK   84  A    between atoms: _233  and  _236
REMARK   85  A    between atoms: _239  and  _241
REMARK   86  A    between atoms: _241  and  _242
REMARK   87  A    between atoms: _241  and  _244
REMARK   88  A    between atoms: _244  and  _245
REMARK   89  A    between atoms: _250  and  _252
REMARK   90  A    between atoms: _252  and  _253
REMARK   91  A    between atoms: _252  and  _255
REMARK   92  A    between atoms: _255  and  _256
REMARK   93  A    between atoms: _262  and  _264
REMARK   94  A    between atoms: _264  and  _265
REMARK   95  A    between atoms: _267  and  _269
REMARK   96  A    between atoms: _269  and  _270
REMARK   97  A    between atoms: _269  and  _272
REMARK   98  A    between atoms: _275  and  _277
REMARK   99  A    between atoms: _277  and  _278
REMARK  100  A    between atoms: _277  and  _280
REMARK  101  A    between atoms: _280  and  _281
REMARK  102  A    between atoms: _281  and  _282
REMARK  103  A    between atoms: _287  and  _289
REMARK  104  A    between atoms: _289  and  _290
REMARK  105  A    between atoms: _289  and  _292
REMARK  106  A    between atoms: _292  and  _293
REMARK  107  A    between atoms: _296  and  _298
REMARK  108  A    between atoms: _298  and  _299
REMARK  109  A    between atoms: _302  and  _304
REMARK  110  A    between atoms: _304  and  _305
REMARK  111  A    between atoms: _304  and  _307
REMARK  112  A    between atoms: _310  and  _312
REMARK  113  A    between atoms: _312  and  _313
REMARK  114  A    between atoms: _312  and  _315
REMARK  115  A    between atoms: _315  and  _316
REMARK  116  A    between atoms: _319  and  _321
REMARK  117  A    between atoms: _321  and  _322
REMARK  118  A    between atoms: _324  and  _326
REMARK  119  A    between atoms: _326  and  _327
REMARK  120  A    between atoms: _326  and  _329
REMARK  121  A    between atoms: _329  and  _330
REMARK  122  A    between atoms: _332  and  _334
REMARK  123  A    between atoms: _334  and  _335
REMARK  124  A    between atoms: _334  and  _337
REMARK  125  A    between atoms: _337  and  _338
REMARK  126  A    between atoms: _341  and  _343
REMARK  127  A    between atoms: _343  and  _344
REMARK  128  A    between atoms: _343  and  _346
REMARK  129  A    between atoms: _346  and  _347
REMARK  130  A    between atoms: _350  and  _352
REMARK  131  A    between atoms: _352  and  _353
REMARK  132  A    between atoms: _352  and  _355
REMARK  133  A    between atoms: _355  and  _356
REMARK  134  A    between atoms: _360  and  _361
REMARK  135  A    between atoms: _367  and  _368
REMARK  136  A    between atoms: _373  and  _375
REMARK  137  A    between atoms: _375  and  _376
REMARK  138  A    between atoms: _375  and  _378
REMARK  139  A    between atoms: _378  and  _379
REMARK  140  A    between atoms: _382  and  _384
REMARK  141  A    between atoms: _384  and  _385
REMARK  142  A    between atoms: _384  and  _387
REMARK  143  A    between atoms: _387  and  _388
REMARK  144  A    between atoms: _391  and  _393
REMARK  145  A    between atoms: _393  and  _394
REMARK  146  A    between atoms: _393  and  _396
REMARK  147  A    between atoms: _398  and  _400
REMARK  148  A    between atoms: _400  and  _401
REMARK  149  A    between atoms: _400  and  _403
REMARK  150  A    between atoms: _406  and  _408
REMARK  151  A    between atoms: _408  and  _409
REMARK  152  A    between atoms: _408  and  _411
REMARK  153  A    between atoms: _411  and  _412
REMARK  154  A    between atoms: _422  and  _424
REMARK  155  A    between atoms: _424  and  _425
REMARK  156  A    between atoms: _424  and  _427
REMARK  157  A    between atoms: _427  and  _428
REMARK  158  A    between atoms: _433  and  _435
REMARK  159  A    between atoms: _435  and  _436
REMARK  160  A    between atoms: _435  and  _438
REMARK  161  A    between atoms: _438  and  _439
REMARK  162  A    between atoms: _439  and  _440
REMARK  163  A    between atoms: _440  and  _441
REMARK                            x       y       z     vdW  Elec       q    Type
REMARK                         _______ _______ _______ _____ _____    ______ ____
ROOT
ATOM      1  C   SER A   1      -2.321  -3.008  23.208  0.00  0.00    +0.244 C 
ATOM      2  N   PRO A   2      -2.973  -4.139  22.937  0.00  0.00    -0.273 N 
ATOM      3  CA  PRO A   2      -4.117  -4.719  23.649  0.00  0.00    +0.140 C 
ATOM      4  CB  PRO A   2      -4.623  -5.769  22.646  0.00  0.00    +0.030 C 
ATOM      5  CG  PRO A   2      -3.336  -6.297  22.038  0.00  0.00    +0.024 C 
ATOM      6  CD  PRO A   2      -2.484  -5.026  21.865  0.00  0.00    +0.094 C 
ATOM      7  O   SER A   1      -1.377  -2.628  22.560  0.00  0.00    -0.273 OA
ENDROOT
BRANCH   3   8
ATOM      8  C   PRO A   2      -3.702  -5.388  24.949  0.00  0.00    +0.227 C 
ATOM      9  O   PRO A   2      -2.507  -5.416  25.281  0.00  0.00    -0.286 OA
ENDBRANCH   3   8
BRANCH   1  10
ATOM     10  CA  SER A   1      -2.839  -2.164  24.359  0.00  0.00    +0.175 C 
BRANCH  10  11
ATOM     11  N   SER A   1      -1.768  -1.277  24.816  0.00  0.00    -0.236 NA
ATOM     12  H   SER A   1      -1.264  -0.691  24.120  0.00  0.00    +0.142 HD
ENDBRANCH  10  11
BRANCH  10  13
ATOM     13  CB  SER A   1      -3.989  -1.342  23.826  0.00  0.00    +0.163 C 
BRANCH  13  14
ATOM     14  OG  SER A   1      -4.606  -0.617  24.883  0.00  0.00    -0.380 OA
ATOM     15  H   SER A   1      -4.948  -1.252  25.561  0.00  0.00    +0.211 HD
ENDBRANCH  13  14
ENDBRANCH  10  13
ENDBRANCH   1  10
TORSDOF 5
REMARK  Name = ../refined-set-2016/3oy0/3oy0_pocket.pdb
REMARK  163 active torsions:
REMARK  status: ('A' for Active; 'I' for Inactive)
REMARK    1  A    between atoms: _1  and  _3
REMARK    2  A    between atoms: _3  and  _4
REMARK    3  A    between atoms: _3  and  _6
REMARK    4  A    between atoms: _6  and  _7
REMARK    5  A    between atoms: _17  and  _19
REMARK    6  A    between atoms: _19  and  _20
REMARK    7  A    between atoms: _19  and  _22
REMARK    8  A    between atoms: _22  and  _23
REMARK    9  A    between atoms: _28  and  _29
REMARK   10  A    between atoms: _31  and  _33
REMARK   11  A    between atoms: _33  and  _34
REMARK   12  A    between atoms: _33  and  _36
REMARK   13  A    between atoms: _36  and  _37
REMARK   14  A    between atoms: _40  and  _41
REMARK   15  A    between atoms: _46  and  _48
REMARK   16  A    between atoms: _48  and  _49
REMARK   17  A    between atoms: _48  and  _51
REMARK   18  A    between atoms: _51  and  _52
REMARK   19  A    between atoms: _55  and  _57
REMARK   20  A    between atoms: _57  and  _58
REMARK   21  A    between atoms: _57  and  _60
REMARK   22  A    between atoms: _60  and  _61
REMARK   23  A    between atoms: _66  and  _68
REMARK   24  A    between atoms: _68  and  _69
REMARK   25  A    between atoms: _68  and  _71
REMARK   26  A    between atoms: _71  and  _72
REMARK   27  A    between atoms: _77  and  _79
REMARK   28  A    between atoms: _79  and  _80
REMARK   29  A    between atoms: _83  and  _85
REMARK   30  A    between atoms: _85  and  _86
REMARK   31  A    between atoms: _85  and  _88
REMARK   32  A    between atoms: _88  and  _89
REMARK   33  A    between atoms: _94  and  _96
REMARK   34  A    between atoms: _96  and  _97
REMARK   35  A    between atoms: _96  and  _99
REMARK   36  A    between atoms: _99  and  _100
REMARK   37  A    between atoms: _100  and  _101
REMARK   38  A    between atoms: _104  and  _106
REMARK   39  A    between atoms: _106  and  _107
REMARK   40  A    between atoms: _106  and  _109
REMARK   41  A    between atoms: _109  and  _110
REMARK   42  A    between atoms: _113  and  _115
REMARK   43  A    between atoms: _115  and  _116
REMARK   44  A    between atoms: _115  and  _118
REMARK   45  A    between atoms: _118  and  _119
REMARK   46  A    between atoms: _119  and  _120
REMARK   47  A    between atoms: _125  and  _127
REMARK   48  A    between atoms: _127  and  _128
REMARK   49  A    between atoms: _127  and  _130
REMARK   50  A    between atoms: _130  and  _131
REMARK   51  A    between atoms: _137  and  _139
REMARK   52  A    between atoms: _150  and  _153
REMARK   53  A    between atoms: _153  and  _154
REMARK   54  A    between atoms: _162  and  _163
REMARK   55  A    between atoms: _171  and  _173
REMARK   56  A    between atoms: _173  and  _174
REMARK   57  A    between atoms: _173  and  _176
REMARK   58  A    between atoms: _176  and  _177
REMARK   59  A    between atoms: _177  and  _178
REMARK   60  A    between atoms: _181  and  _183
REMARK   61  A    between atoms: _183  and  _184
REMARK   62  A    between atoms: _183  and  _186
REMARK   63  A    between atoms: _186  and  _187
REMARK   64  A    between atoms: _192  and  _194
REMARK   65  A    between atoms: _194  and  _195
REMARK   66  A    between atoms: _194  and  _197
REMARK   67  A    between atoms: _197  and  _198
REMARK   68  A    between atoms: _198  and  _199
REMARK   69  A    between atoms: _202  and  _204
REMARK   70  A    between atoms: _204  and  _205
REMARK   71  A    between atoms: _204  and  _207
REMARK   72  A    between atoms: _207  and  _208
REMARK   73  A    between atoms: _211  and  _213
REMARK   74  A    between atoms: _213  and  _214
REMARK   75  A    between atoms: _213  and  _216
REMARK   76  A    between atoms: _216  and  _217
REMARK   77  A    between atoms: _218  and  ZN_450
REMARK   78  A    between atoms: _222  and  _224
REMARK   79  A    between atoms: _224  and  _225
REMARK   80  A    between atoms: _224  and  _227
REMARK   81  A    between atoms: _227  and  _228
REMARK   82  A    between atoms: _231  and  _233
REMARK   83  A    between atoms: _233  and  _234
REMARK   84  A    between atoms: _233  and  _236
REMARK   85  A    between atoms: _239  and  _241
REMARK   86  A    between atoms: _241  and  _242
REMARK   87  A    between atoms: _241  and  _244
REMARK   88  A    between atoms: _244  and  _245
REMARK   89  A    between atoms: _250  and  _252
REMARK   90  A    between atoms: _252  and  _253
REMARK   91  A    between atoms: _252  and  _255
REMARK   92  A    between atoms: _255  and  _256
REMARK   93  A    between atoms: _262  and  _264
REMARK   94  A    between atoms: _264  and  _265
REMARK   95  A    between atoms: _267  and  _269
REMARK   96  A    between atoms: _269  and  _270
REMARK   97  A    between atoms: _269  and  _272
REMARK   98  A    between atoms: _275  and  _277
REMARK   99  A    between atoms: _277  and  _278
REMARK  100  A    between atoms: _277  and  _280
REMARK  101  A    between atoms: _280  and  _281
REMARK  102  A    between atoms: _281  and  _282
REMARK  103  A    between atoms: _287  and  _289
REMARK  104  A    between atoms: _289  and  _290
REMARK  105  A    between atoms: _289  and  _292
REMARK  106  A    between atoms: _292  and  _293
REMARK  107  A    between atoms: _296  and  _298
REMARK  108  A    between atoms: _298  and  _299
REMARK  109  A    between atoms: _302  and  _304
REMARK  110  A    between atoms: _304  and  _305
REMARK  111  A    between atoms: _304  and  _307
REMARK  112  A    between atoms: _310  and  _312
REMARK  113  A    between atoms: _312  and  _313
REMARK  114  A    between atoms: _312  and  _315
REMARK  115  A    between atoms: _315  and  _316
REMARK  116  A    between atoms: _319  and  _321
REMARK  117  A    between atoms: _321  and  _322
REMARK  118  A    between atoms: _324  and  _326
REMARK  119  A    between atoms: _326  and  _327
REMARK  120  A    between atoms: _326  and  _329
REMARK  121  A    between atoms: _329  and  _330
REMARK  122  A    between atoms: _332  and  _334
REMARK  123  A    between atoms: _334  and  _335
REMARK  124  A    between atoms: _334  and  _337
REMARK  125  A    between atoms: _337  and  _338
REMARK  126  A    between atoms: _341  and  _343
REMARK  127  A    between atoms: _343  and  _344
REMARK  128  A    between atoms: _343  and  _346
REMARK  129  A    between atoms: _346  and  _347
REMARK  130  A    between atoms: _350  and  _352
REMARK  131  A    between atoms: _352  and  _353
REMARK  132  A    between atoms: _352  and  _355
REMARK  133  A    between atoms: _355  and  _356
REMARK  134  A    between atoms: _360  and  _361
REMARK  135  A    between atoms: _367  and  _368
REMARK  136  A    between atoms: _373  and  _375
REMARK  137  A    between atoms: _375  and  _376
REMARK  138  A    between atoms: _375  and  _378
REMARK  139  A    between atoms: _378  and  _379
REMARK  140  A    between atoms: _382  and  _384
REMARK  141  A    between atoms: _384  and  _385
REMARK  142  A    between atoms: _384  and  _387
REMARK  143  A    between atoms: _387  and  _388
REMARK  144  A    between atoms: _391  and  _393
REMARK  145  A    between atoms: _393  and  _394
REMARK  146  A    between atoms: _393  and  _396
REMARK  147  A    between atoms: _398  and  _400
REMARK  148  A    between atoms: _400  and  _401
REMARK  149  A    between atoms: _400  and  _403
REMARK  150  A    between atoms: _406  and  _408
REMARK  151  A    between atoms: _408  and  _409
REMARK  152  A    between atoms: _408  and  _411
REMARK  153  A    between atoms: _411  and  _412
REMARK  154  A    between atoms: _422  and  _424
REMARK  155  A    between atoms: _424  and  _425
REMARK  156  A    between atoms: _424  and  _427
REMARK  157  A    between atoms: _427  and  _428
REMARK  158  A    between atoms: _433  and  _435
REMARK  159  A    between atoms: _435  and  _436
REMARK  160  A    between atoms: _435  and  _438
REMARK  161  A    between atoms: _438  and  _439
REMARK  162  A    between atoms: _439  and  _440
REMARK  163  A    between atoms: _440  and  _441
REMARK                            x       y       z     vdW  Elec       q    Type
REMARK                         _______ _______ _______ _____ _____    ______ ____
ROOT
ATOM      1  CA  LEU A   1      -7.606   2.452   1.828  0.00  0.00    +0.133 C 
ENDROOT
BRANCH   1   2
ATOM      2  N   LEU A   1      -9.034   2.309   2.153  0.00  0.00    -0.239 NA
ATOM      3  H   LEU A   1      -9.307   2.060   3.125  0.00  0.00    +0.142 HD
ENDBRANCH   1   2
BRANCH   1   4
ATOM      4  C   LEU A   1      -6.817   1.261   2.352  0.00  0.00    +0.224 C 
ATOM      5  O   LEU A   1      -6.940   0.915   3.505  0.00  0.00    -0.287 OA
ENDBRANCH   1   4
BRANCH   1   6
ATOM      6  CB  LEU A   1      -7.084   3.759   2.462  0.00  0.00    +0.025 C 
BRANCH   6   7
ATOM      7  CG  LEU A   1      -5.547   3.892   2.498  0.00  0.00    +0.002 C 
ATOM      8  CD2 LEU A   1      -5.065   5.005   3.413  0.00  0.00    +0.000 C 
ATOM      9  CD1 LEU A   1      -5.009   4.121   1.078  0.00  0.00    +0.000 C 
ENDBRANCH   6   7
ENDBRANCH   1   6
TORSDOF 4
REMARK  Name = ../refined-set-2016/3oy0/3oy0_pocket.pdb
REMARK  163 active torsions:
REMARK  status: ('A' for Active; 'I' for Inactive)
REMARK    1  A    between atoms: _1  and  _3
REMARK    2  A    between atoms: _3  and  _4
REMARK    3  A    between atoms: _3  and  _6
REMARK    4  A    between atoms: _6  and  _7
REMARK    5  A    between atoms: _17  and  _19
REMARK    6  A    between atoms: _19  and  _20
REMARK    7  A    between atoms: _19  and  _22
REMARK    8  A    between atoms: _22  and  _23
REMARK    9  A    between atoms: _28  and  _29
REMARK   10  A    between atoms: _31  and  _33
REMARK   11  A    between atoms: _33  and  _34
REMARK   12  A    between atoms: _33  and  _36
REMARK   13  A    between atoms: _36  and  _37
REMARK   14  A    between atoms: _40  and  _41
REMARK   15  A    between atoms: _46  and  _48
REMARK   16  A    between atoms: _48  and  _49
REMARK   17  A    between atoms: _48  and  _51
REMARK   18  A    between atoms: _51  and  _52
REMARK   19  A    between atoms: _55  and  _57
REMARK   20  A    between atoms: _57  and  _58
REMARK   21  A    between atoms: _57  and  _60
REMARK   22  A    between atoms: _60  and  _61
REMARK   23  A    between atoms: _66  and  _68
REMARK   24  A    between atoms: _68  and  _69
REMARK   25  A    between atoms: _68  and  _71
REMARK   26  A    between atoms: _71  and  _72
REMARK   27  A    between atoms: _77  and  _79
REMARK   28  A    between atoms: _79  and  _80
REMARK   29  A    between atoms: _83  and  _85
REMARK   30  A    between atoms: _85  and  _86
REMARK   31  A    between atoms: _85  and  _88
REMARK   32  A    between atoms: _88  and  _89
REMARK   33  A    between atoms: _94  and  _96
REMARK   34  A    between atoms: _96  and  _97
REMARK   35  A    between atoms: _96  and  _99
REMARK   36  A    between atoms: _99  and  _100
REMARK   37  A    between atoms: _100  and  _101
REMARK   38  A    between atoms: _104  and  _106
REMARK   39  A    between atoms: _106  and  _107
REMARK   40  A    between atoms: _106  and  _109
REMARK   41  A    between atoms: _109  and  _110
REMARK   42  A    between atoms: _113  and  _115
REMARK   43  A    between atoms: _115  and  _116
REMARK   44  A    between atoms: _115  and  _118
REMARK   45  A    between atoms: _118  and  _119
REMARK   46  A    between atoms: _119  and  _120
REMARK   47  A    between atoms: _125  and  _127
REMARK   48  A    between atoms: _127  and  _128
REMARK   49  A    between atoms: _127  and  _130
REMARK   50  A    between atoms: _130  and  _131
REMARK   51  A    between atoms: _137  and  _139
REMARK   52  A    between atoms: _150  and  _153
REMARK   53  A    between atoms: _153  and  _154
REMARK   54  A    between atoms: _162  and  _163
REMARK   55  A    between atoms: _171  and  _173
REMARK   56  A    between atoms: _173  and  _174
REMARK   57  A    between atoms: _173  and  _176
REMARK   58  A    between atoms: _176  and  _177
REMARK   59  A    between atoms: _177  and  _178
REMARK   60  A    between atoms: _181  and  _183
REMARK   61  A    between atoms: _183  and  _184
REMARK   62  A    between atoms: _183  and  _186
REMARK   63  A    between atoms: _186  and  _187
REMARK   64  A    between atoms: _192  and  _194
REMARK   65  A    between atoms: _194  and  _195
REMARK   66  A    between atoms: _194  and  _197
REMARK   67  A    between atoms: _197  and  _198
REMARK   68  A    between atoms: _198  and  _199
REMARK   69  A    between atoms: _202  and  _204
REMARK   70  A    between atoms: _204  and  _205
REMARK   71  A    between atoms: _204  and  _207
REMARK   72  A    between atoms: _207  and  _208
REMARK   73  A    between atoms: _211  and  _213
REMARK   74  A    between atoms: _213  and  _214
REMARK   75  A    between atoms: _213  and  _216
REMARK   76  A    between atoms: _216  and  _217
REMARK   77  A    between atoms: _218  and  ZN_450
REMARK   78  A    between atoms: _222  and  _224
REMARK   79  A    between atoms: _224  and  _225
REMARK   80  A    between atoms: _224  and  _227
REMARK   81  A    between atoms: _227  and  _228
REMARK   82  A    between atoms: _231  and  _233
REMARK   83  A    between atoms: _233  and  _234
REMARK   84  A    between atoms: _233  and  _236
REMARK   85  A    between atoms: _239  and  _241
REMARK   86  A    between atoms: _241  and  _242
REMARK   87  A    between atoms: _241  and  _244
REMARK   88  A    between atoms: _244  and  _245
REMARK   89  A    between atoms: _250  and  _252
REMARK   90  A    between atoms: _252  and  _253
REMARK   91  A    between atoms: _252  and  _255
REMARK   92  A    between atoms: _255  and  _256
REMARK   93  A    between atoms: _262  and  _264
REMARK   94  A    between atoms: _264  and  _265
REMARK   95  A    between atoms: _267  and  _269
REMARK   96  A    between atoms: _269  and  _270
REMARK   97  A    between atoms: _269  and  _272
REMARK   98  A    between atoms: _275  and  _277
REMARK   99  A    between atoms: _277  and  _278
REMARK  100  A    between atoms: _277  and  _280
REMARK  101  A    between atoms: _280  and  _281
REMARK  102  A    between atoms: _281  and  _282
REMARK  103  A    between atoms: _287  and  _289
REMARK  104  A    between atoms: _289  and  _290
REMARK  105  A    between atoms: _289  and  _292
REMARK  106  A    between atoms: _292  and  _293
REMARK  107  A    between atoms: _296  and  _298
REMARK  108  A    between atoms: _298  and  _299
REMARK  109  A    between atoms: _302  and  _304
REMARK  110  A    between atoms: _304  and  _305
REMARK  111  A    between atoms: _304  and  _307
REMARK  112  A    between atoms: _310  and  _312
REMARK  113  A    between atoms: _312  and  _313
REMARK  114  A    between atoms: _312  and  _315
REMARK  115  A    between atoms: _315  and  _316
REMARK  116  A    between atoms: _319  and  _321
REMARK  117  A    between atoms: _321  and  _322
REMARK  118  A    between atoms: _324  and  _326
REMARK  119  A    between atoms: _326  and  _327
REMARK  120  A    between atoms: _326  and  _329
REMARK  121  A    between atoms: _329  and  _330
REMARK  122  A    between atoms: _332  and  _334
REMARK  123  A    between atoms: _334  and  _335
REMARK  124  A    between atoms: _334  and  _337
REMARK  125  A    between atoms: _337  and  _338
REMARK  126  A    between atoms: _341  and  _343
REMARK  127  A    between atoms: _343  and  _344
REMARK  128  A    between atoms: _343  and  _346
REMARK  129  A    between atoms: _346  and  _347
REMARK  130  A    between atoms: _350  and  _352
REMARK  131  A    between atoms: _352  and  _353
REMARK  132  A    between atoms: _352  and  _355
REMARK  133  A    between atoms: _355  and  _356
REMARK  134  A    between atoms: _360  and  _361
REMARK  135  A    between atoms: _367  and  _368
REMARK  136  A    between atoms: _373  and  _375
REMARK  137  A    between atoms: _375  and  _376
REMARK  138  A    between atoms: _375  and  _378
REMARK  139  A    between atoms: _378  and  _379
REMARK  140  A    between atoms: _382  and  _384
REMARK  141  A    between atoms: _384  and  _385
REMARK  142  A    between atoms: _384  and  _387
REMARK  143  A    between atoms: _387  and  _388
REMARK  144  A    between atoms: _391  and  _393
REMARK  145  A    between atoms: _393  and  _394
REMARK  146  A    between atoms: _393  and  _396
REMARK  147  A    between atoms: _398  and  _400
REMARK  148  A    between atoms: _400  and  _401
REMARK  149  A    between atoms: _400  and  _403
REMARK  150  A    between atoms: _406  and  _408
REMARK  151  A    between atoms: _408  and  _409
REMARK  152  A    between atoms: _408  and  _411
REMARK  153  A    between atoms: _411  and  _412
REMARK  154  A    between atoms: _422  and  _424
REMARK  155  A    between atoms: _424  and  _425
REMARK  156  A    between atoms: _424  and  _427
REMARK  157  A    between atoms: _427  and  _428
REMARK  158  A    between atoms: _433  and  _435
REMARK  159  A    between atoms: _435  and  _436
REMARK  160  A    between atoms: _435  and  _438
REMARK  161  A    between atoms: _438  and  _439
REMARK  162  A    between atoms: _439  and  _440
REMARK  163  A    between atoms: _440  and  _441
REMARK                            x       y       z     vdW  Elec       q    Type
REMARK                         _______ _______ _______ _____ _____    ______ ____
ROOT
ATOM      1  CB  ASN A   1      -2.636   2.242   5.351  0.00  0.00    +0.110 C 
ENDROOT
BRANCH   1   2
ATOM      2  CG  ASN A   1      -2.980   1.385   6.542  0.00  0.00    +0.221 C 
ATOM      3  ND2 ASN A   1      -3.665   1.977   7.508  0.00  0.00    -0.329 N 
ATOM      4 HD21 ASN A   1      -3.964   1.433   8.342  0.00  0.00    +0.145 HD
ATOM      5 HD22 ASN A   1      -3.904   2.986   7.433  0.00  0.00    +0.145 HD
ATOM      6  OD1 ASN A   1      -2.676   0.209   6.582  0.00  0.00    -0.275 OA
ENDBRANCH   1   2
BRANCH   1   7
ATOM      7  CA  ASN A   1      -2.271   1.412   4.113  0.00  0.00    +0.142 C 
BRANCH   7   8
ATOM      8  N   ASN A   1      -3.403   0.598   3.665  0.00  0.00    -0.239 NA
ATOM      9  H   ASN A   1      -3.967   0.079   4.368  0.00  0.00    +0.142 HD
ENDBRANCH   7   8
BRANCH   7  10
ATOM     10  C   ASN A   1      -1.008   0.610   4.379  0.00  0.00    +0.225 C 
ATOM     11  O   ASN A   1      -0.017   1.142   4.891  0.00  0.00    -0.287 OA
ENDBRANCH   7  10
ENDBRANCH   1   7
TORSDOF 4
REMARK  Name = ../refined-set-2016/3oy0/3oy0_pocket.pdb
REMARK  163 active torsions:
REMARK  status: ('A' for Active; 'I' for Inactive)
REMARK    1  A    between atoms: _1  and  _3
REMARK    2  A    between atoms: _3  and  _4
REMARK    3  A    between atoms: _3  and  _6
REMARK    4  A    between atoms: _6  and  _7
REMARK    5  A    between atoms: _17  and  _19
REMARK    6  A    between atoms: _19  and  _20
REMARK    7  A    between atoms: _19  and  _22
REMARK    8  A    between atoms: _22  and  _23
REMARK    9  A    between atoms: _28  and  _29
REMARK   10  A    between atoms: _31  and  _33
REMARK   11  A    between atoms: _33  and  _34
REMARK   12  A    between atoms: _33  and  _36
REMARK   13  A    between atoms: _36  and  _37
REMARK   14  A    between atoms: _40  and  _41
REMARK   15  A    between atoms: _46  and  _48
REMARK   16  A    between atoms: _48  and  _49
REMARK   17  A    between atoms: _48  and  _51
REMARK   18  A    between atoms: _51  and  _52
REMARK   19  A    between atoms: _55  and  _57
REMARK   20  A    between atoms: _57  and  _58
REMARK   21  A    between atoms: _57  and  _60
REMARK   22  A    between atoms: _60  and  _61
REMARK   23  A    between atoms: _66  and  _68
REMARK   24  A    between atoms: _68  and  _69
REMARK   25  A    between atoms: _68  and  _71
REMARK   26  A    between atoms: _71  and  _72
REMARK   27  A    between atoms: _77  and  _79
REMARK   28  A    between atoms: _79  and  _80
REMARK   29  A    between atoms: _83  and  _85
REMARK   30  A    between atoms: _85  and  _86
REMARK   31  A    between atoms: _85  and  _88
REMARK   32  A    between atoms: _88  and  _89
REMARK   33  A    between atoms: _94  and  _96
REMARK   34  A    between atoms: _96  and  _97
REMARK   35  A    between atoms: _96  and  _99
REMARK   36  A    between atoms: _99  and  _100
REMARK   37  A    between atoms: _100  and  _101
REMARK   38  A    between atoms: _104  and  _106
REMARK   39  A    between atoms: _106  and  _107
REMARK   40  A    between atoms: _106  and  _109
REMARK   41  A    between atoms: _109  and  _110
REMARK   42  A    between atoms: _113  and  _115
REMARK   43  A    between atoms: _115  and  _116
REMARK   44  A    between atoms: _115  and  _118
REMARK   45  A    between atoms: _118  and  _119
REMARK   46  A    between atoms: _119  and  _120
REMARK   47  A    between atoms: _125  and  _127
REMARK   48  A    between atoms: _127  and  _128
REMARK   49  A    between atoms: _127  and  _130
REMARK   50  A    between atoms: _130  and  _131
REMARK   51  A    between atoms: _137  and  _139
REMARK   52  A    between atoms: _150  and  _153
REMARK   53  A    between atoms: _153  and  _154
REMARK   54  A    between atoms: _162  and  _163
REMARK   55  A    between atoms: _171  and  _173
REMARK   56  A    between atoms: _173  and  _174
REMARK   57  A    between atoms: _173  and  _176
REMARK   58  A    between atoms: _176  and  _177
REMARK   59  A    between atoms: _177  and  _178
REMARK   60  A    between atoms: _181  and  _183
REMARK   61  A    between atoms: _183  and  _184
REMARK   62  A    between atoms: _183  and  _186
REMARK   63  A    between atoms: _186  and  _187
REMARK   64  A    between atoms: _192  and  _194
REMARK   65  A    between atoms: _194  and  _195
REMARK   66  A    between atoms: _194  and  _197
REMARK   67  A    between atoms: _197  and  _198
REMARK   68  A    between atoms: _198  and  _199
REMARK   69  A    between atoms: _202  and  _204
REMARK   70  A    between atoms: _204  and  _205
REMARK   71  A    between atoms: _204  and  _207
REMARK   72  A    between atoms: _207  and  _208
REMARK   73  A    between atoms: _211  and  _213
REMARK   74  A    between atoms: _213  and  _214
REMARK   75  A    between atoms: _213  and  _216
REMARK   76  A    between atoms: _216  and  _217
REMARK   77  A    between atoms: _218  and  ZN_450
REMARK   78  A    between atoms: _222  and  _224
REMARK   79  A    between atoms: _224  and  _225
REMARK   80  A    between atoms: _224  and  _227
REMARK   81  A    between atoms: _227  and  _228
REMARK   82  A    between atoms: _231  and  _233
REMARK   83  A    between atoms: _233  and  _234
REMARK   84  A    between atoms: _233  and  _236
REMARK   85  A    between atoms: _239  and  _241
REMARK   86  A    between atoms: _241  and  _242
REMARK   87  A    between atoms: _241  and  _244
REMARK   88  A    between atoms: _244  and  _245
REMARK   89  A    between atoms: _250  and  _252
REMARK   90  A    between atoms: _252  and  _253
REMARK   91  A    between atoms: _252  and  _255
REMARK   92  A    between atoms: _255  and  _256
REMARK   93  A    between atoms: _262  and  _264
REMARK   94  A    between atoms: _264  and  _265
REMARK   95  A    between atoms: _267  and  _269
REMARK   96  A    between atoms: _269  and  _270
REMARK   97  A    between atoms: _269  and  _272
REMARK   98  A    between atoms: _275  and  _277
REMARK   99  A    between atoms: _277  and  _278
REMARK  100  A    between atoms: _277  and  _280
REMARK  101  A    between atoms: _280  and  _281
REMARK  102  A    between atoms: _281  and  _282
REMARK  103  A    between atoms: _287  and  _289
REMARK  104  A    between atoms: _289  and  _290
REMARK  105  A    between atoms: _289  and  _292
REMARK  106  A    between atoms: _292  and  _293
REMARK  107  A    between atoms: _296  and  _298
REMARK  108  A    between atoms: _298  and  _299
REMARK  109  A    between atoms: _302  and  _304
REMARK  110  A    between atoms: _304  and  _305
REMARK  111  A    between atoms: _304  and  _307
REMARK  112  A    between atoms: _310  and  _312
REMARK  113  A    between atoms: _312  and  _313
REMARK  114  A    between atoms: _312  and  _315
REMARK  115  A    between atoms: _315  and  _316
REMARK  116  A    between atoms: _319  and  _321
REMARK  117  A    between atoms: _321  and  _322
REMARK  118  A    between atoms: _324  and  _326
REMARK  119  A    between atoms: _326  and  _327
REMARK  120  A    between atoms: _326  and  _329
REMARK  121  A    between atoms: _329  and  _330
REMARK  122  A    between atoms: _332  and  _334
REMARK  123  A    between atoms: _334  and  _335
REMARK  124  A    between atoms: _334  and  _337
REMARK  125  A    between atoms: _337  and  _338
REMARK  126  A    between atoms: _341  and  _343
REMARK  127  A    between atoms: _343  and  _344
REMARK  128  A    between atoms: _343  and  _346
REMARK  129  A    between atoms: _346  and  _347
REMARK  130  A    between atoms: _350  and  _352
REMARK  131  A    between atoms: _352  and  _353
REMARK  132  A    between atoms: _352  and  _355
REMARK  133  A    between atoms: _355  and  _356
REMARK  134  A    between atoms: _360  and  _361
REMARK  135  A    between atoms: _367  and  _368
REMARK  136  A    between atoms: _373  and  _375
REMARK  137  A    between atoms: _375  and  _376
REMARK  138  A    between atoms: _375  and  _378
REMARK  139  A    between atoms: _378  and  _379
REMARK  140  A    between atoms: _382  and  _384
REMARK  141  A    between atoms: _384  and  _385
REMARK  142  A    between atoms: _384  and  _387
REMARK  143  A    between atoms: _387  and  _388
REMARK  144  A    between atoms: _391  and  _393
REMARK  145  A    between atoms: _393  and  _394
REMARK  146  A    between atoms: _393  and  _396
REMARK  147  A    between atoms: _398  and  _400
REMARK  148  A    between atoms: _400  and  _401
REMARK  149  A    between atoms: _400  and  _403
REMARK  150  A    between atoms: _406  and  _408
REMARK  151  A    between atoms: _408  and  _409
REMARK  152  A    between atoms: _408  and  _411
REMARK  153  A    between atoms: _411  and  _412
REMARK  154  A    between atoms: _422  and  _424
REMARK  155  A    between atoms: _424  and  _425
REMARK  156  A    between atoms: _424  and  _427
REMARK  157  A    between atoms: _427  and  _428
REMARK  158  A    between atoms: _433  and  _435
REMARK  159  A    between atoms: _435  and  _436
REMARK  160  A    between atoms: _435  and  _438
REMARK  161  A    between atoms: _438  and  _439
REMARK  162  A    between atoms: _439  and  _440
REMARK  163  A    between atoms: _440  and  _441
REMARK                            x       y       z     vdW  Elec       q    Type
REMARK                         _______ _______ _______ _____ _____    ______ ____
ROOT
ATOM      1  CA  HIS A   1      -0.825  -2.698   7.611  0.00  0.00    +0.151 C 
ENDROOT
BRANCH   1   2
ATOM      2  C   HIS A   1      -2.217  -3.264   7.846  0.00  0.00    +0.239 C 
ATOM      3  O   HIS A   1      -2.351  -4.317   8.473  0.00  0.00    -0.274 OA
ATOM      4  N   ALA A   2      -3.233  -2.593   7.307  0.00  0.00    -0.298 N 
ATOM      5  H   ALA A   2      -3.037  -1.688   6.833  0.00  0.00    +0.150 HD
BRANCH   4   6
ATOM      6  CA  ALA A   2      -4.580  -3.063   7.352  0.00  0.00    +0.137 C 
ATOM      7  CB  ALA A   2      -5.203  -2.778   8.744  0.00  0.00    +0.030 C 
BRANCH   6   8
ATOM      8  C   ALA A   2      -5.312  -2.320   6.235  0.00  0.00    +0.227 C 
ATOM      9  O   ALA A   2      -4.659  -1.663   5.395  0.00  0.00    -0.286 OA
ENDBRANCH   6   8
ENDBRANCH   4   6
ENDBRANCH   1   2
BRANCH   1  10
ATOM     10  N   HIS A   1      -0.714  -1.962   6.318  0.00  0.00    -0.238 NA
ATOM     11  H   HIS A   1      -1.361  -1.170   6.130  0.00  0.00    +0.142 HD
ENDBRANCH   1  10
BRANCH   1  12
ATOM     12  CB  HIS A   1      -0.313  -1.992   8.888  0.00  0.00    +0.074 C 
BRANCH  12  13
ATOM     13  CG  HIS A   1      -0.416  -0.509   8.911  0.00  0.00    +0.082 A 
ATOM     14  ND1 HIS A   1      -1.416   0.152   9.593  0.00  0.00    -0.227 NA
ATOM     15  CE1 HIS A   1      -1.233   1.454   9.481  0.00  0.00    +0.199 A 
ATOM     16  NE2 HIS A   1      -0.131   1.662   8.782  0.00  0.00    -0.221 NA
ATOM     17  CD2 HIS A   1       0.411   0.449   8.432  0.00  0.00    +0.115 A 
ENDBRANCH  12  13
ENDBRANCH   1  12
TORSDOF 6
REMARK  Name = ../refined-set-2016/3oy0/3oy0_pocket.pdb
REMARK  163 active torsions:
REMARK  status: ('A' for Active; 'I' for Inactive)
REMARK    1  A    between atoms: _1  and  _3
REMARK    2  A    between atoms: _3  and  _4
REMARK    3  A    between atoms: _3  and  _6
REMARK    4  A    between atoms: _6  and  _7
REMARK    5  A    between atoms: _17  and  _19
REMARK    6  A    between atoms: _19  and  _20
REMARK    7  A    between atoms: _19  and  _22
REMARK    8  A    between atoms: _22  and  _23
REMARK    9  A    between atoms: _28  and  _29
REMARK   10  A    between atoms: _31  and  _33
REMARK   11  A    between atoms: _33  and  _34
REMARK   12  A    between atoms: _33  and  _36
REMARK   13  A    between atoms: _36  and  _37
REMARK   14  A    between atoms: _40  and  _41
REMARK   15  A    between atoms: _46  and  _48
REMARK   16  A    between atoms: _48  and  _49
REMARK   17  A    between atoms: _48  and  _51
REMARK   18  A    between atoms: _51  and  _52
REMARK   19  A    between atoms: _55  and  _57
REMARK   20  A    between atoms: _57  and  _58
REMARK   21  A    between atoms: _57  and  _60
REMARK   22  A    between atoms: _60  and  _61
REMARK   23  A    between atoms: _66  and  _68
REMARK   24  A    between atoms: _68  and  _69
REMARK   25  A    between atoms: _68  and  _71
REMARK   26  A    between atoms: _71  and  _72
REMARK   27  A    between atoms: _77  and  _79
REMARK   28  A    between atoms: _79  and  _80
REMARK   29  A    between atoms: _83  and  _85
REMARK   30  A    between atoms: _85  and  _86
REMARK   31  A    between atoms: _85  and  _88
REMARK   32  A    between atoms: _88  and  _89
REMARK   33  A    between atoms: _94  and  _96
REMARK   34  A    between atoms: _96  and  _97
REMARK   35  A    between atoms: _96  and  _99
REMARK   36  A    between atoms: _99  and  _100
REMARK   37  A    between atoms: _100  and  _101
REMARK   38  A    between atoms: _104  and  _106
REMARK   39  A    between atoms: _106  and  _107
REMARK   40  A    between atoms: _106  and  _109
REMARK   41  A    between atoms: _109  and  _110
REMARK   42  A    between atoms: _113  and  _115
REMARK   43  A    between atoms: _115  and  _116
REMARK   44  A    between atoms: _115  and  _118
REMARK   45  A    between atoms: _118  and  _119
REMARK   46  A    between atoms: _119  and  _120
REMARK   47  A    between atoms: _125  and  _127
REMARK   48  A    between atoms: _127  and  _128
REMARK   49  A    between atoms: _127  and  _130
REMARK   50  A    between atoms: _130  and  _131
REMARK   51  A    between atoms: _137  and  _139
REMARK   52  A    between atoms: _150  and  _153
REMARK   53  A    between atoms: _153  and  _154
REMARK   54  A    between atoms: _162  and  _163
REMARK   55  A    between atoms: _171  and  _173
REMARK   56  A    between atoms: _173  and  _174
REMARK   57  A    between atoms: _173  and  _176
REMARK   58  A    between atoms: _176  and  _177
REMARK   59  A    between atoms: _177  and  _178
REMARK   60  A    between atoms: _181  and  _183
REMARK   61  A    between atoms: _183  and  _184
REMARK   62  A    between atoms: _183  and  _186
REMARK   63  A    between atoms: _186  and  _187
REMARK   64  A    between atoms: _192  and  _194
REMARK   65  A    between atoms: _194  and  _195
REMARK   66  A    between atoms: _194  and  _197
REMARK   67  A    between atoms: _197  and  _198
REMARK   68  A    between atoms: _198  and  _199
REMARK   69  A    between atoms: _202  and  _204
REMARK   70  A    between atoms: _204  and  _205
REMARK   71  A    between atoms: _204  and  _207
REMARK   72  A    between atoms: _207  and  _208
REMARK   73  A    between atoms: _211  and  _213
REMARK   74  A    between atoms: _213  and  _214
REMARK   75  A    between atoms: _213  and  _216
REMARK   76  A    between atoms: _216  and  _217
REMARK   77  A    between atoms: _218  and  ZN_450
REMARK   78  A    between atoms: _222  and  _224
REMARK   79  A    between atoms: _224  and  _225
REMARK   80  A    between atoms: _224  and  _227
REMARK   81  A    between atoms: _227  and  _228
REMARK   82  A    between atoms: _231  and  _233
REMARK   83  A    between atoms: _233  and  _234
REMARK   84  A    between atoms: _233  and  _236
REMARK   85  A    between atoms: _239  and  _241
REMARK   86  A    between atoms: _241  and  _242
REMARK   87  A    between atoms: _241  and  _244
REMARK   88  A    between atoms: _244  and  _245
REMARK   89  A    between atoms: _250  and  _252
REMARK   90  A    between atoms: _252  and  _253
REMARK   91  A    between atoms: _252  and  _255
REMARK   92  A    between atoms: _255  and  _256
REMARK   93  A    between atoms: _262  and  _264
REMARK   94  A    between atoms: _264  and  _265
REMARK   95  A    between atoms: _267  and  _269
REMARK   96  A    between atoms: _269  and  _270
REMARK   97  A    between atoms: _269  and  _272
REMARK   98  A    between atoms: _275  and  _277
REMARK   99  A    between atoms: _277  and  _278
REMARK  100  A    between atoms: _277  and  _280
REMARK  101  A    between atoms: _280  and  _281
REMARK  102  A    between atoms: _281  and  _282
REMARK  103  A    between atoms: _287  and  _289
REMARK  104  A    between atoms: _289  and  _290
REMARK  105  A    between atoms: _289  and  _292
REMARK  106  A    between atoms: _292  and  _293
REMARK  107  A    between atoms: _296  and  _298
REMARK  108  A    between atoms: _298  and  _299
REMARK  109  A    between atoms: _302  and  _304
REMARK  110  A    between atoms: _304  and  _305
REMARK  111  A    between atoms: _304  and  _307
REMARK  112  A    between atoms: _310  and  _312
REMARK  113  A    between atoms: _312  and  _313
REMARK  114  A    between atoms: _312  and  _315
REMARK  115  A    between atoms: _315  and  _316
REMARK  116  A    between atoms: _319  and  _321
REMARK  117  A    between atoms: _321  and  _322
REMARK  118  A    between atoms: _324  and  _326
REMARK  119  A    between atoms: _326  and  _327
REMARK  120  A    between atoms: _326  and  _329
REMARK  121  A    between atoms: _329  and  _330
REMARK  122  A    between atoms: _332  and  _334
REMARK  123  A    between atoms: _334  and  _335
REMARK  124  A    between atoms: _334  and  _337
REMARK  125  A    between atoms: _337  and  _338
REMARK  126  A    between atoms: _341  and  _343
REMARK  127  A    between atoms: _343  and  _344
REMARK  128  A    between atoms: _343  and  _346
REMARK  129  A    between atoms: _346  and  _347
REMARK  130  A    between atoms: _350  and  _352
REMARK  131  A    between atoms: _352  and  _353
REMARK  132  A    between atoms: _352  and  _355
REMARK  133  A    between atoms: _355  and  _356
REMARK  134  A    between atoms: _360  and  _361
REMARK  135  A    between atoms: _367  and  _368
REMARK  136  A    between atoms: _373  and  _375
REMARK  137  A    between atoms: _375  and  _376
REMARK  138  A    between atoms: _375  and  _378
REMARK  139  A    between atoms: _378  and  _379
REMARK  140  A    between atoms: _382  and  _384
REMARK  141  A    between atoms: _384  and  _385
REMARK  142  A    between atoms: _384  and  _387
REMARK  143  A    between atoms: _387  and  _388
REMARK  144  A    between atoms: _391  and  _393
REMARK  145  A    between atoms: _393  and  _394
REMARK  146  A    between atoms: _393  and  _396
REMARK  147  A    between atoms: _398  and  _400
REMARK  148  A    between atoms: _400  and  _401
REMARK  149  A    between atoms: _400  and  _403
REMARK  150  A    between atoms: _406  and  _408
REMARK  151  A    between atoms: _408  and  _409
REMARK  152  A    between atoms: _408  and  _411
REMARK  153  A    between atoms: _411  and  _412
REMARK  154  A    between atoms: _422  and  _424
REMARK  155  A    between atoms: _424  and  _425
REMARK  156  A    between atoms: _424  and  _427
REMARK  157  A    between atoms: _427  and  _428
REMARK  158  A    between atoms: _433  and  _435
REMARK  159  A    between atoms: _435  and  _436
REMARK  160  A    between atoms: _435  and  _438
REMARK  161  A    between atoms: _438  and  _439
REMARK  162  A    between atoms: _439  and  _440
REMARK  163  A    between atoms: _440  and  _441
REMARK                            x       y       z     vdW  Elec       q    Type
REMARK                         _______ _______ _______ _____ _____    ______ ____
ROOT
ATOM      1  CB  ASN A   1      -8.514   2.849   7.129  0.00  0.00    +0.110 C 
ENDROOT
BRANCH   1   2
ATOM      2  CG  ASN A   1      -7.410   2.624   8.106  0.00  0.00    +0.221 C 
ATOM      3  OD1 ASN A   1      -7.306   1.555   8.698  0.00  0.00    -0.275 OA
ATOM      4  ND2 ASN A   1      -6.549   3.638   8.280  0.00  0.00    -0.329 N 
ATOM      5 HD21 ASN A   1      -5.752   3.536   8.940  0.00  0.00    +0.145 HD
ATOM      6 HD22 ASN A   1      -6.679   4.526   7.755  0.00  0.00    +0.145 HD
ENDBRANCH   1   2
BRANCH   1   7
ATOM      7  CA  ASN A   1      -9.230   1.569   6.694  0.00  0.00    +0.142 C 
BRANCH   7   8
ATOM      8  N   ASN A   1      -8.388   0.667   5.904  0.00  0.00    -0.239 NA
ATOM      9  H   ASN A   1      -7.866   1.037   5.084  0.00  0.00    +0.142 HD
ENDBRANCH   7   8
BRANCH   7  10
ATOM     10  C   ASN A   1     -10.445   1.982   5.852  0.00  0.00    +0.225 C 
ATOM     11  O   ASN A   1     -10.301   2.424   4.710  0.00  0.00    -0.287 OA
ENDBRANCH   7  10
ENDBRANCH   1   7
TORSDOF 4
REMARK  Name = ../refined-set-2016/3oy0/3oy0_pocket.pdb
REMARK  163 active torsions:
REMARK  status: ('A' for Active; 'I' for Inactive)
REMARK    1  A    between atoms: _1  and  _3
REMARK    2  A    between atoms: _3  and  _4
REMARK    3  A    between atoms: _3  and  _6
REMARK    4  A    between atoms: _6  and  _7
REMARK    5  A    between atoms: _17  and  _19
REMARK    6  A    between atoms: _19  and  _20
REMARK    7  A    between atoms: _19  and  _22
REMARK    8  A    between atoms: _22  and  _23
REMARK    9  A    between atoms: _28  and  _29
REMARK   10  A    between atoms: _31  and  _33
REMARK   11  A    between atoms: _33  and  _34
REMARK   12  A    between atoms: _33  and  _36
REMARK   13  A    between atoms: _36  and  _37
REMARK   14  A    between atoms: _40  and  _41
REMARK   15  A    between atoms: _46  and  _48
REMARK   16  A    between atoms: _48  and  _49
REMARK   17  A    between atoms: _48  and  _51
REMARK   18  A    between atoms: _51  and  _52
REMARK   19  A    between atoms: _55  and  _57
REMARK   20  A    between atoms: _57  and  _58
REMARK   21  A    between atoms: _57  and  _60
REMARK   22  A    between atoms: _60  and  _61
REMARK   23  A    between atoms: _66  and  _68
REMARK   24  A    between atoms: _68  and  _69
REMARK   25  A    between atoms: _68  and  _71
REMARK   26  A    between atoms: _71  and  _72
REMARK   27  A    between atoms: _77  and  _79
REMARK   28  A    between atoms: _79  and  _80
REMARK   29  A    between atoms: _83  and  _85
REMARK   30  A    between atoms: _85  and  _86
REMARK   31  A    between atoms: _85  and  _88
REMARK   32  A    between atoms: _88  and  _89
REMARK   33  A    between atoms: _94  and  _96
REMARK   34  A    between atoms: _96  and  _97
REMARK   35  A    between atoms: _96  and  _99
REMARK   36  A    between atoms: _99  and  _100
REMARK   37  A    between atoms: _100  and  _101
REMARK   38  A    between atoms: _104  and  _106
REMARK   39  A    between atoms: _106  and  _107
REMARK   40  A    between atoms: _106  and  _109
REMARK   41  A    between atoms: _109  and  _110
REMARK   42  A    between atoms: _113  and  _115
REMARK   43  A    between atoms: _115  and  _116
REMARK   44  A    between atoms: _115  and  _118
REMARK   45  A    between atoms: _118  and  _119
REMARK   46  A    between atoms: _119  and  _120
REMARK   47  A    between atoms: _125  and  _127
REMARK   48  A    between atoms: _127  and  _128
REMARK   49  A    between atoms: _127  and  _130
REMARK   50  A    between atoms: _130  and  _131
REMARK   51  A    between atoms: _137  and  _139
REMARK   52  A    between atoms: _150  and  _153
REMARK   53  A    between atoms: _153  and  _154
REMARK   54  A    between atoms: _162  and  _163
REMARK   55  A    between atoms: _171  and  _173
REMARK   56  A    between atoms: _173  and  _174
REMARK   57  A    between atoms: _173  and  _176
REMARK   58  A    between atoms: _176  and  _177
REMARK   59  A    between atoms: _177  and  _178
REMARK   60  A    between atoms: _181  and  _183
REMARK   61  A    between atoms: _183  and  _184
REMARK   62  A    between atoms: _183  and  _186
REMARK   63  A    between atoms: _186  and  _187
REMARK   64  A    between atoms: _192  and  _194
REMARK   65  A    between atoms: _194  and  _195
REMARK   66  A    between atoms: _194  and  _197
REMARK   67  A    between atoms: _197  and  _198
REMARK   68  A    between atoms: _198  and  _199
REMARK   69  A    between atoms: _202  and  _204
REMARK   70  A    between atoms: _204  and  _205
REMARK   71  A    between atoms: _204  and  _207
REMARK   72  A    between atoms: _207  and  _208
REMARK   73  A    between atoms: _211  and  _213
REMARK   74  A    between atoms: _213  and  _214
REMARK   75  A    between atoms: _213  and  _216
REMARK   76  A    between atoms: _216  and  _217
REMARK   77  A    between atoms: _218  and  ZN_450
REMARK   78  A    between atoms: _222  and  _224
REMARK   79  A    between atoms: _224  and  _225
REMARK   80  A    between atoms: _224  and  _227
REMARK   81  A    between atoms: _227  and  _228
REMARK   82  A    between atoms: _231  and  _233
REMARK   83  A    between atoms: _233  and  _234
REMARK   84  A    between atoms: _233  and  _236
REMARK   85  A    between atoms: _239  and  _241
REMARK   86  A    between atoms: _241  and  _242
REMARK   87  A    between atoms: _241  and  _244
REMARK   88  A    between atoms: _244  and  _245
REMARK   89  A    between atoms: _250  and  _252
REMARK   90  A    between atoms: _252  and  _253
REMARK   91  A    between atoms: _252  and  _255
REMARK   92  A    between atoms: _255  and  _256
REMARK   93  A    between atoms: _262  and  _264
REMARK   94  A    between atoms: _264  and  _265
REMARK   95  A    between atoms: _267  and  _269
REMARK   96  A    between atoms: _269  and  _270
REMARK   97  A    between atoms: _269  and  _272
REMARK   98  A    between atoms: _275  and  _277
REMARK   99  A    between atoms: _277  and  _278
REMARK  100  A    between atoms: _277  and  _280
REMARK  101  A    between atoms: _280  and  _281
REMARK  102  A    between atoms: _281  and  _282
REMARK  103  A    between atoms: _287  and  _289
REMARK  104  A    between atoms: _289  and  _290
REMARK  105  A    between atoms: _289  and  _292
REMARK  106  A    between atoms: _292  and  _293
REMARK  107  A    between atoms: _296  and  _298
REMARK  108  A    between atoms: _298  and  _299
REMARK  109  A    between atoms: _302  and  _304
REMARK  110  A    between atoms: _304  and  _305
REMARK  111  A    between atoms: _304  and  _307
REMARK  112  A    between atoms: _310  and  _312
REMARK  113  A    between atoms: _312  and  _313
REMARK  114  A    between atoms: _312  and  _315
REMARK  115  A    between atoms: _315  and  _316
REMARK  116  A    between atoms: _319  and  _321
REMARK  117  A    between atoms: _321  and  _322
REMARK  118  A    between atoms: _324  and  _326
REMARK  119  A    between atoms: _326  and  _327
REMARK  120  A    between atoms: _326  and  _329
REMARK  121  A    between atoms: _329  and  _330
REMARK  122  A    between atoms: _332  and  _334
REMARK  123  A    between atoms: _334  and  _335
REMARK  124  A    between atoms: _334  and  _337
REMARK  125  A    between atoms: _337  and  _338
REMARK  126  A    between atoms: _341  and  _343
REMARK  127  A    between atoms: _343  and  _344
REMARK  128  A    between atoms: _343  and  _346
REMARK  129  A    between atoms: _346  and  _347
REMARK  130  A    between atoms: _350  and  _352
REMARK  131  A    between atoms: _352  and  _353
REMARK  132  A    between atoms: _352  and  _355
REMARK  133  A    between atoms: _355  and  _356
REMARK  134  A    between atoms: _360  and  _361
REMARK  135  A    between atoms: _367  and  _368
REMARK  136  A    between atoms: _373  and  _375
REMARK  137  A    between atoms: _375  and  _376
REMARK  138  A    between atoms: _375  and  _378
REMARK  139  A    between atoms: _378  and  _379
REMARK  140  A    between atoms: _382  and  _384
REMARK  141  A    between atoms: _384  and  _385
REMARK  142  A    between atoms: _384  and  _387
REMARK  143  A    between atoms: _387  and  _388
REMARK  144  A    between atoms: _391  and  _393
REMARK  145  A    between atoms: _393  and  _394
REMARK  146  A    between atoms: _393  and  _396
REMARK  147  A    between atoms: _398  and  _400
REMARK  148  A    between atoms: _400  and  _401
REMARK  149  A    between atoms: _400  and  _403
REMARK  150  A    between atoms: _406  and  _408
REMARK  151  A    between atoms: _408  and  _409
REMARK  152  A    between atoms: _408  and  _411
REMARK  153  A    between atoms: _411  and  _412
REMARK  154  A    between atoms: _422  and  _424
REMARK  155  A    between atoms: _424  and  _425
REMARK  156  A    between atoms: _424  and  _427
REMARK  157  A    between atoms: _427  and  _428
REMARK  158  A    between atoms: _433  and  _435
REMARK  159  A    between atoms: _435  and  _436
REMARK  160  A    between atoms: _435  and  _438
REMARK  161  A    between atoms: _438  and  _439
REMARK  162  A    between atoms: _439  and  _440
REMARK  163  A    between atoms: _440  and  _441
REMARK                            x       y       z     vdW  Elec       q    Type
REMARK                         _______ _______ _______ _____ _____    ______ ____
ROOT
ATOM      1  CA  GLU A   1     -12.765   6.299   6.314  0.00  0.00    +0.134 C 
ENDROOT
BRANCH   1   2
ATOM      2  N   GLU A   1     -12.843   4.967   5.777  0.00  0.00    -0.239 NA
ATOM      3  H   GLU A   1     -12.808   4.844   4.745  0.00  0.00    +0.142 HD
ENDBRANCH   1   2
BRANCH   1   4
ATOM      4  C   GLU A   1     -14.109   6.992   6.229  0.00  0.00    +0.224 C 
ATOM      5  O   GLU A   1     -14.857   6.767   5.288  0.00  0.00    -0.287 OA
ENDBRANCH   1   4
BRANCH   1   6
ATOM      6  CB  GLU A   1     -11.762   7.114   5.508  0.00  0.00    +0.037 C 
BRANCH   6   7
ATOM      7  CG  GLU A   1     -10.374   6.485   5.490  0.00  0.00    +0.116 C 
BRANCH   7   8
ATOM      8  CD  GLU A   1      -9.475   7.064   4.427  0.00  0.00    +0.365 C 
ATOM      9  OE2 GLU A   1      -8.254   6.803   4.488  0.00  0.00    -0.246 OA
ATOM     10  OE1 GLU A   1      -9.993   7.760   3.527  0.00  0.00    -0.246 OA
ENDBRANCH   7   8
ENDBRANCH   6   7
ENDBRANCH   1   6
TORSDOF 5
REMARK  Name = ../refined-set-2016/3oy0/3oy0_pocket.pdb
REMARK  163 active torsions:
REMARK  status: ('A' for Active; 'I' for Inactive)
REMARK    1  A    between atoms: _1  and  _3
REMARK    2  A    between atoms: _3  and  _4
REMARK    3  A    between atoms: _3  and  _6
REMARK    4  A    between atoms: _6  and  _7
REMARK    5  A    between atoms: _17  and  _19
REMARK    6  A    between atoms: _19  and  _20
REMARK    7  A    between atoms: _19  and  _22
REMARK    8  A    between atoms: _22  and  _23
REMARK    9  A    between atoms: _28  and  _29
REMARK   10  A    between atoms: _31  and  _33
REMARK   11  A    between atoms: _33  and  _34
REMARK   12  A    between atoms: _33  and  _36
REMARK   13  A    between atoms: _36  and  _37
REMARK   14  A    between atoms: _40  and  _41
REMARK   15  A    between atoms: _46  and  _48
REMARK   16  A    between atoms: _48  and  _49
REMARK   17  A    between atoms: _48  and  _51
REMARK   18  A    between atoms: _51  and  _52
REMARK   19  A    between atoms: _55  and  _57
REMARK   20  A    between atoms: _57  and  _58
REMARK   21  A    between atoms: _57  and  _60
REMARK   22  A    between atoms: _60  and  _61
REMARK   23  A    between atoms: _66  and  _68
REMARK   24  A    between atoms: _68  and  _69
REMARK   25  A    between atoms: _68  and  _71
REMARK   26  A    between atoms: _71  and  _72
REMARK   27  A    between atoms: _77  and  _79
REMARK   28  A    between atoms: _79  and  _80
REMARK   29  A    between atoms: _83  and  _85
REMARK   30  A    between atoms: _85  and  _86
REMARK   31  A    between atoms: _85  and  _88
REMARK   32  A    between atoms: _88  and  _89
REMARK   33  A    between atoms: _94  and  _96
REMARK   34  A    between atoms: _96  and  _97
REMARK   35  A    between atoms: _96  and  _99
REMARK   36  A    between atoms: _99  and  _100
REMARK   37  A    between atoms: _100  and  _101
REMARK   38  A    between atoms: _104  and  _106
REMARK   39  A    between atoms: _106  and  _107
REMARK   40  A    between atoms: _106  and  _109
REMARK   41  A    between atoms: _109  and  _110
REMARK   42  A    between atoms: _113  and  _115
REMARK   43  A    between atoms: _115  and  _116
REMARK   44  A    between atoms: _115  and  _118
REMARK   45  A    between atoms: _118  and  _119
REMARK   46  A    between atoms: _119  and  _120
REMARK   47  A    between atoms: _125  and  _127
REMARK   48  A    between atoms: _127  and  _128
REMARK   49  A    between atoms: _127  and  _130
REMARK   50  A    between atoms: _130  and  _131
REMARK   51  A    between atoms: _137  and  _139
REMARK   52  A    between atoms: _150  and  _153
REMARK   53  A    between atoms: _153  and  _154
REMARK   54  A    between atoms: _162  and  _163
REMARK   55  A    between atoms: _171  and  _173
REMARK   56  A    between atoms: _173  and  _174
REMARK   57  A    between atoms: _173  and  _176
REMARK   58  A    between atoms: _176  and  _177
REMARK   59  A    between atoms: _177  and  _178
REMARK   60  A    between atoms: _181  and  _183
REMARK   61  A    between atoms: _183  and  _184
REMARK   62  A    between atoms: _183  and  _186
REMARK   63  A    between atoms: _186  and  _187
REMARK   64  A    between atoms: _192  and  _194
REMARK   65  A    between atoms: _194  and  _195
REMARK   66  A    between atoms: _194  and  _197
REMARK   67  A    between atoms: _197  and  _198
REMARK   68  A    between atoms: _198  and  _199
REMARK   69  A    between atoms: _202  and  _204
REMARK   70  A    between atoms: _204  and  _205
REMARK   71  A    between atoms: _204  and  _207
REMARK   72  A    between atoms: _207  and  _208
REMARK   73  A    between atoms: _211  and  _213
REMARK   74  A    between atoms: _213  and  _214
REMARK   75  A    between atoms: _213  and  _216
REMARK   76  A    between atoms: _216  and  _217
REMARK   77  A    between atoms: _218  and  ZN_450
REMARK   78  A    between atoms: _222  and  _224
REMARK   79  A    between atoms: _224  and  _225
REMARK   80  A    between atoms: _224  and  _227
REMARK   81  A    between atoms: _227  and  _228
REMARK   82  A    between atoms: _231  and  _233
REMARK   83  A    between atoms: _233  and  _234
REMARK   84  A    between atoms: _233  and  _236
REMARK   85  A    between atoms: _239  and  _241
REMARK   86  A    between atoms: _241  and  _242
REMARK   87  A    between atoms: _241  and  _244
REMARK   88  A    between atoms: _244  and  _245
REMARK   89  A    between atoms: _250  and  _252
REMARK   90  A    between atoms: _252  and  _253
REMARK   91  A    between atoms: _252  and  _255
REMARK   92  A    between atoms: _255  and  _256
REMARK   93  A    between atoms: _262  and  _264
REMARK   94  A    between atoms: _264  and  _265
REMARK   95  A    between atoms: _267  and  _269
REMARK   96  A    between atoms: _269  and  _270
REMARK   97  A    between atoms: _269  and  _272
REMARK   98  A    between atoms: _275  and  _277
REMARK   99  A    between atoms: _277  and  _278
REMARK  100  A    between atoms: _277  and  _280
REMARK  101  A    between atoms: _280  and  _281
REMARK  102  A    between atoms: _281  and  _282
REMARK  103  A    between atoms: _287  and  _289
REMARK  104  A    between atoms: _289  and  _290
REMARK  105  A    between atoms: _289  and  _292
REMARK  106  A    between atoms: _292  and  _293
REMARK  107  A    between atoms: _296  and  _298
REMARK  108  A    between atoms: _298  and  _299
REMARK  109  A    between atoms: _302  and  _304
REMARK  110  A    between atoms: _304  and  _305
REMARK  111  A    between atoms: _304  and  _307
REMARK  112  A    between atoms: _310  and  _312
REMARK  113  A    between atoms: _312  and  _313
REMARK  114  A    between atoms: _312  and  _315
REMARK  115  A    between atoms: _315  and  _316
REMARK  116  A    between atoms: _319  and  _321
REMARK  117  A    between atoms: _321  and  _322
REMARK  118  A    between atoms: _324  and  _326
REMARK  119  A    between atoms: _326  and  _327
REMARK  120  A    between atoms: _326  and  _329
REMARK  121  A    between atoms: _329  and  _330
REMARK  122  A    between atoms: _332  and  _334
REMARK  123  A    between atoms: _334  and  _335
REMARK  124  A    between atoms: _334  and  _337
REMARK  125  A    between atoms: _337  and  _338
REMARK  126  A    between atoms: _341  and  _343
REMARK  127  A    between atoms: _343  and  _344
REMARK  128  A    between atoms: _343  and  _346
REMARK  129  A    between atoms: _346  and  _347
REMARK  130  A    between atoms: _350  and  _352
REMARK  131  A    between atoms: _352  and  _353
REMARK  132  A    between atoms: _352  and  _355
REMARK  133  A    between atoms: _355  and  _356
REMARK  134  A    between atoms: _360  and  _361
REMARK  135  A    between atoms: _367  and  _368
REMARK  136  A    between atoms: _373  and  _375
REMARK  137  A    between atoms: _375  and  _376
REMARK  138  A    between atoms: _375  and  _378
REMARK  139  A    between atoms: _378  and  _379
REMARK  140  A    between atoms: _382  and  _384
REMARK  141  A    between atoms: _384  and  _385
REMARK  142  A    between atoms: _384  and  _387
REMARK  143  A    between atoms: _387  and  _388
REMARK  144  A    between atoms: _391  and  _393
REMARK  145  A    between atoms: _393  and  _394
REMARK  146  A    between atoms: _393  and  _396
REMARK  147  A    between atoms: _398  and  _400
REMARK  148  A    between atoms: _400  and  _401
REMARK  149  A    between atoms: _400  and  _403
REMARK  150  A    between atoms: _406  and  _408
REMARK  151  A    between atoms: _408  and  _409
REMARK  152  A    between atoms: _408  and  _411
REMARK  153  A    between atoms: _411  and  _412
REMARK  154  A    between atoms: _422  and  _424
REMARK  155  A    between atoms: _424  and  _425
REMARK  156  A    between atoms: _424  and  _427
REMARK  157  A    between atoms: _427  and  _428
REMARK  158  A    between atoms: _433  and  _435
REMARK  159  A    between atoms: _435  and  _436
REMARK  160  A    between atoms: _435  and  _438
REMARK  161  A    between atoms: _438  and  _439
REMARK  162  A    between atoms: _439  and  _440
REMARK  163  A    between atoms: _440  and  _441
REMARK                            x       y       z     vdW  Elec       q    Type
REMARK                         _______ _______ _______ _____ _____    ______ ____
ROOT
ATOM      1  C   UNK A   4     -10.320  -1.332  10.335  0.00  0.00    +0.000 C 
ATOM      2  C   UNK A   4     -10.372  -2.610  11.144  0.00  0.00    +0.000 C 
ATOM      3  O   UNK A   4     -11.014  -2.657  12.197  0.00  0.00    +0.000 OA
ATOM      4  N   VAL A   5      -9.666  -3.631  10.678  0.00  0.00    +0.000 N 
ATOM      5  CA  VAL A   5      -9.643  -4.923  11.354  0.00  0.00    +0.000 C 
ATOM      6  C   VAL A   5      -8.183  -5.370  11.543  0.00  0.00    +0.000 C 
ATOM      7  N   UNK A   6      -8.007  -6.319  12.443  0.00  0.00    +0.000 N 
ATOM      8  H   UNK A   6      -8.782  -6.498  13.114  0.00  0.00    +0.000 HD
ATOM      9  C   UNK A   6      -6.804  -7.136  12.565  0.00  0.00    +0.000 C 
ATOM     10  C   UNK A   6      -6.144  -6.907  13.925  0.00  0.00    +0.000 C 
ATOM     11  C   UNK A   6      -5.856  -5.463  14.226  0.00  0.00    +0.000 A 
ATOM     12  C   UNK A   6      -6.668  -4.460  14.635  0.00  0.00    +0.000 A 
ATOM     13  N   UNK A   6      -5.909  -3.307  14.674  0.00  0.00    +0.000 N 
ATOM     14 ZN   UNK A   6      -6.690  -1.514  15.321  0.00  0.00    +0.000 Zn
ATOM     15  N   UNK A   4      -7.399  -0.660  13.648  0.00  0.00    +0.000 N 
ATOM     16  C   UNK A   4      -7.917   0.554  13.513  0.00  0.00    +0.000 A 
ATOM     17  N   UNK A   4      -8.459   0.639  12.313  0.00  0.00    +0.000 NA
ATOM     18  C   UNK A   4      -8.301  -0.559  11.653  0.00  0.00    +0.000 A 
ATOM     19  C   UNK A   4      -7.648  -1.380  12.504  0.00  0.00    +0.000 A 
ATOM     20  C   UNK A   6      -4.664  -3.608  14.357  0.00  0.00    +0.000 A 
ATOM     21  N   UNK A   6      -4.611  -4.891  14.035  0.00  0.00    +0.000 NA
ATOM     22  O   VAL A   5      -7.283  -4.897  10.873  0.00  0.00    +0.000 OA
ATOM     23  H   VAL A   5      -9.113  -3.507   9.806  0.00  0.00    +0.000 HD
ATOM     24  C   UNK A   4      -8.876  -0.811  10.291  0.00  0.00    +0.000 C 
ENDROOT
BRANCH  14  25
ATOM     25  N   UNK A   6      -8.163  -2.224  16.555  0.00  0.00    +0.000 N 
ATOM     26  C   UNK A   6      -7.848  -3.157  17.437  0.00  0.00    +0.000 A 
ATOM     27  N   UNK A   6      -8.958  -3.543  18.053  0.00  0.00    +0.000 NA
ATOM     28  C   UNK A   6     -10.016  -2.828  17.562  0.00  0.00    +0.000 A 
ATOM     29  C   UNK A   6      -9.529  -1.998  16.605  0.00  0.00    +0.000 A 
BRANCH  29  30
ATOM     30  C   UNK A   6     -10.244  -1.026  15.735  0.00  0.00    +0.000 C 
BRANCH  30  31
ATOM     31  C   UNK A   6     -11.742  -1.331  15.649  0.00  0.00    +0.000 C 
BRANCH  31  32
ATOM     32  C   UNK A   6     -12.416  -0.202  14.970  0.00  0.00    +0.000 C 
ATOM     33  N   UNK A   4     -13.430   0.364  15.637  0.00  0.00    +0.000 N 
ATOM     34  H   UNK A   4     -13.773  -0.100  16.502  0.00  0.00    +0.000 HD
ATOM     35  O   UNK A   6     -12.017   0.182  13.859  0.00  0.00    +0.000 OA
BRANCH  33  36
ATOM     36  C   UNK A   4     -14.080   1.606  15.206  0.00  0.00    +0.000 C 
BRANCH  36  37
ATOM     37  C   UNK A   4     -13.468   2.742  15.978  0.00  0.00    +0.000 C 
ATOM     38  O   UNK A   4     -13.605   2.820  17.204  0.00  0.00    +0.000 OA
ATOM     39  N   VAL A   5     -12.720   3.568  15.266  0.00  0.00    +0.000 N 
ATOM     40  H   VAL A   5     -12.724   3.487  14.229  0.00  0.00    +0.000 HD
BRANCH  39  41
ATOM     41  CA  VAL A   5     -11.891   4.588  15.893  0.00  0.00    +0.000 C 
BRANCH  41  42
ATOM     42  C   VAL A   5     -12.601   5.947  15.928  0.00  0.00    +0.000 C 
ATOM     43  N   UNK A   6     -12.679   6.557  17.116  0.00  0.00    +0.000 N 
ATOM     44  H   UNK A   6     -12.247   6.097  17.943  0.00  0.00    +0.000 HD
ATOM     45  O   VAL A   5     -13.015   6.458  14.882  0.00  0.00    +0.000 OA
BRANCH  43  46
ATOM     46  C   UNK A   6     -13.347   7.843  17.297  0.00  0.00    +0.000 C 
BRANCH  46  47
ATOM     47  C   UNK A   6     -12.463   8.813  18.069  0.00  0.00    +0.000 C 
ATOM     48  O   UNK A   6     -11.638   8.389  18.886  0.00  0.00    +0.000 OA
ENDBRANCH  46  47
BRANCH  46  49
ATOM     49  C   UNK A   6     -14.610   7.667  18.132  0.00  0.00    +0.000 C 
BRANCH  49  50
ATOM     50  C   UNK A   6     -15.512   6.546  17.711  0.00  0.00    +0.000 A 
ATOM     51  N   UNK A   6     -15.213   5.222  17.971  0.00  0.00    +0.000 NA
ATOM     52  C   UNK A   6     -16.216   4.457  17.555  0.00  0.00    +0.000 A 
ATOM     53  N   UNK A   6     -17.155   5.234  17.043  0.00  0.00    +0.000 NA
ATOM     54  C   UNK A   6     -16.744   6.546  17.134  0.00  0.00    +0.000 A 
ENDBRANCH  49  50
ENDBRANCH  46  49
ENDBRANCH  43  46
ENDBRANCH  41  42
BRANCH  41  55
ATOM     55  CB  VAL A   5     -10.536   4.725  15.129  0.00  0.00    +0.000 C 
ATOM     56  CG2 VAL A   5      -9.649   5.765  15.774  0.00  0.00    +0.000 C 
ATOM     57  CG1 VAL A   5      -9.823   3.363  15.033  0.00  0.00    +0.000 C 
ENDBRANCH  41  55
ENDBRANCH  39  41
ENDBRANCH  36  37
BRANCH  36  58
ATOM     58  C   UNK A   4     -15.577   1.536  15.391  0.00  0.00    +0.000 C 
BRANCH  58  59
ATOM     59  C   UNK A   4     -16.273   0.475  14.527  0.00  0.00    +0.000 C 
ATOM     60  C   UNK A   4     -17.127  -0.458  15.383  0.00  0.00    +0.000 C 
ATOM     61  C   UNK A   4     -17.149   1.145  13.452  0.00  0.00    +0.000 C 
ENDBRANCH  58  59
ENDBRANCH  36  58
ENDBRANCH  33  36
ENDBRANCH  31  32
BRANCH  31  62
ATOM     62  N   UNK A   6     -11.960  -2.568  14.893  0.00  0.00    +0.000 N 
ATOM     63  C   LEU A   2     -12.613  -3.635  15.368  0.00  0.00    +0.000 C 
ATOM     64  O   LEU A   2     -12.989  -3.744  16.544  0.00  0.00    +0.000 OA
ATOM     65  H   UNK A   6     -11.583  -2.620  13.925  0.00  0.00    +0.000 HD
BRANCH  63  66
ATOM     66  CA  LEU A   2     -12.821  -4.783  14.390  0.00  0.00    +0.000 C 
BRANCH  66  67
ATOM     67  N   LEU A   2     -12.431  -6.046  15.031  0.00  0.00    +0.000 N 
ATOM     68  H   LEU A   2     -13.130  -6.518  15.640  0.00  0.00    +0.000 HD
ATOM     69  C   GLU A   1     -11.246  -6.624  14.884  0.00  0.00    +0.000 C 
ATOM     70  O   GLU A   1     -10.353  -6.190  14.179  0.00  0.00    +0.000 OA
BRANCH  69  71
ATOM     71  CA  GLU A   1     -11.041  -7.870  15.710  0.00  0.00    +0.000 C 
BRANCH  71  72
ATOM     72  N   GLU A   1     -10.539  -8.914  14.819  0.00  0.00    +0.000 NA
ATOM     73  H   GLU A   1      -9.907  -8.648  14.037  0.00  0.00    +0.000 HD
ENDBRANCH  71  72
BRANCH  71  74
ATOM     74  CB  GLU A   1     -10.045  -7.631  16.841  0.00  0.00    +0.000 C 
BRANCH  74  75
ATOM     75  CG  GLU A   1     -10.556  -6.686  17.961  0.00  0.00    +0.000 C 
BRANCH  75  76
ATOM     76  CD  GLU A   1      -9.640  -6.647  19.160  0.00  0.00    +0.000 C 
ATOM     77  OE2 GLU A   1      -9.604  -5.562  19.812  0.00  0.00    +0.000 OA
ATOM     78  OE1 GLU A   1      -9.007  -7.681  19.460  0.00  0.00    +0.000 OA
ENDBRANCH  75  76
ENDBRANCH  74  75
ENDBRANCH  71  74
ENDBRANCH  69  71
ENDBRANCH  66  67
BRANCH  66  79
ATOM     79  CB  LEU A   2     -14.296  -4.863  14.011  0.00  0.00    +0.000 C 
BRANCH  79  80
ATOM     80  CG  LEU A   2     -15.075  -3.567  13.690  0.00  0.00    +0.000 C 
ATOM     81  CD2 LEU A   2     -16.531  -3.945  13.455  0.00  0.00    +0.000 C 
ATOM     82  CD1 LEU A   2     -14.506  -2.937  12.447  0.00  0.00    +0.000 C 
ENDBRANCH  79  80
ENDBRANCH  66  79
ENDBRANCH  63  66
ENDBRANCH  31  62
ENDBRANCH  30  31
ENDBRANCH  29  30
ENDBRANCH  14  25
BRANCH   1  84
ATOM     83  C   UNK A   3     -11.756   0.625  10.287  0.00  0.00    +0.000 C 
ATOM     84  N   UNK A   4     -11.238  -0.406  10.947  0.00  0.00    +0.000 N 
ATOM     85  H   UNK A   4     -11.505  -0.549  11.942  0.00  0.00    +0.000 HD
ATOM     86  O   UNK A   3     -11.517   0.846   9.100  0.00  0.00    +0.000 OA
BRANCH  83  87
ATOM     87  C   UNK A   3     -12.679   1.502  11.107  0.00  0.00    +0.000 C 
BRANCH  87  90
ATOM     88  C   LEU A   2     -12.585   3.908  11.204  0.00  0.00    +0.000 C 
ATOM     89  O   LEU A   2     -12.604   3.937  12.434  0.00  0.00    +0.000 OA
ATOM     90  N   UNK A   3     -12.791   2.806  10.488  0.00  0.00    +0.000 N 
ATOM     91  H   UNK A   3     -13.033   2.881   9.479  0.00  0.00    +0.000 HD
BRANCH  88  92
ATOM     92  CA  LEU A   2     -12.339   5.176  10.423  0.00  0.00    +0.000 C 
BRANCH  92  94
ATOM     93  C   GLU A   1     -12.747   7.551  10.800  0.00  0.00    +0.000 C 
ATOM     94  N   LEU A   2     -12.596   6.319  11.304  0.00  0.00    +0.000 N 
ATOM     95  H   LEU A   2     -12.662   6.172  12.331  0.00  0.00    +0.000 HD
ATOM     96  O   GLU A   1     -12.716   7.760   9.597  0.00  0.00    +0.000 OA
BRANCH  93  97
ATOM     97  CA  GLU A   1     -13.046   8.695  11.749  0.00  0.00    +0.000 C 
BRANCH  97  98
ATOM     98  CB  GLU A   1     -11.741   9.347  12.252  0.00  0.00    +0.000 C 
ATOM     99  CG2 GLU A   1     -11.013   8.481  13.278  0.00  0.00    +0.000 C 
BRANCH  98 100
ATOM    100  CG1 GLU A   1     -10.808   9.655  11.065  0.00  0.00    +0.000 C 
ATOM    101  CD1 GLU A   1      -9.578  10.482  11.431  0.00  0.00    +0.000 C 
ENDBRANCH  98 100
ENDBRANCH  97  98
BRANCH  97 102
ATOM    102  N   GLU A   1     -13.948   8.318  12.836  0.00  0.00    +0.000 NA
ATOM    103  H   GLU A   1     -13.603   7.684  13.585  0.00  0.00    +0.000 HD
ENDBRANCH  97 102
ENDBRANCH  93  97
ENDBRANCH  92  94
BRANCH  92 104
ATOM    104  CB  LEU A   2     -10.892   5.178   9.859  0.00  0.00    +0.000 C 
BRANCH 104 105
ATOM    105  CG  LEU A   2      -9.781   5.307  10.907  0.00  0.00    +0.000 C 
BRANCH 105 106
ATOM    106  CD  LEU A   2      -9.074   4.015  11.257  0.00  0.00    +0.000 C 
ATOM    107  NE2 LEU A   2      -7.833   4.165  11.686  0.00  0.00    +0.000 N 
ATOM    108 HE21 LEU A   2      -7.282   3.335  11.984  0.00  0.00    +0.000 HD
ATOM    109 HE22 LEU A   2      -7.407   5.113  11.725  0.00  0.00    +0.000 HD
ATOM    110  OE1 LEU A   2      -9.631   2.914  11.189  0.00  0.00    +0.000 OA
ENDBRANCH 105 106
ENDBRANCH 104 105
ENDBRANCH  92 104
ENDBRANCH  88  92
ENDBRANCH  87  90
BRANCH  87 111
ATOM    111  C   UNK A   3     -14.054   0.799  11.361  0.00  0.00    +0.000 C 
BRANCH 111 112
ATOM    112  C   UNK A   3     -14.789   0.349  10.119  0.00  0.00    +0.000 A 
ATOM    113  C   UNK A   3     -15.898   1.052   9.677  0.00  0.00    +0.000 A 
ATOM    114  C   UNK A   3     -16.622   0.613   8.595  0.00  0.00    +0.000 A 
ATOM    115  C   UNK A   3     -16.223  -0.502   7.875  0.00  0.00    +0.000 A 
ATOM    116  C   UNK A   3     -15.126  -1.238   8.289  0.00  0.00    +0.000 A 
ATOM    117  C   UNK A   3     -14.399  -0.797   9.413  0.00  0.00    +0.000 A 
ENDBRANCH 111 112
ENDBRANCH  87 111
ENDBRANCH  83  87
ENDBRANCH   1  84
BRANCH   9 118
ATOM    118  C   UNK A   6      -7.234  -8.587  12.442  0.00  0.00    +0.000 C 
ATOM    119  O   UNK A   6      -8.292  -8.958  12.954  0.00  0.00    +0.000 OA
ENDBRANCH   9 118
BRANCH   5 120
ATOM    120  CB  VAL A   5     -10.383  -6.017  10.537  0.00  0.00    +0.000 C 
BRANCH 120 121
ATOM    121  CG  VAL A   5     -11.824  -5.700  10.194  0.00  0.00    +0.000 A 
ATOM    122  CD2 VAL A   5     -12.848  -6.359  10.840  0.00  0.00    +0.000 A 
ATOM    123  CE2 VAL A   5     -14.153  -6.133  10.511  0.00  0.00    +0.000 A 
ATOM    124  CZ  VAL A   5     -14.488  -5.264   9.509  0.00  0.00    +0.000 A 
ATOM    125  CE1 VAL A   5     -13.510  -4.592   8.827  0.00  0.00    +0.000 A 
ATOM    126  CD1 VAL A   5     -12.163  -4.828   9.153  0.00  0.00    +0.000 A 
ENDBRANCH 120 121
ENDBRANCH   5 120
TORSDOF 42
REMARK  Name = ../refined-set-2016/3oy0/3oy0_pocket.pdb
REMARK  163 active torsions:
REMARK  status: ('A' for Active; 'I' for Inactive)
REMARK    1  A    between atoms: _1  and  _3
REMARK    2  A    between atoms: _3  and  _4
REMARK    3  A    between atoms: _3  and  _6
REMARK    4  A    between atoms: _6  and  _7
REMARK    5  A    between atoms: _17  and  _19
REMARK    6  A    between atoms: _19  and  _20
REMARK    7  A    between atoms: _19  and  _22
REMARK    8  A    between atoms: _22  and  _23
REMARK    9  A    between atoms: _28  and  _29
REMARK   10  A    between atoms: _31  and  _33
REMARK   11  A    between atoms: _33  and  _34
REMARK   12  A    between atoms: _33  and  _36
REMARK   13  A    between atoms: _36  and  _37
REMARK   14  A    between atoms: _40  and  _41
REMARK   15  A    between atoms: _46  and  _48
REMARK   16  A    between atoms: _48  and  _49
REMARK   17  A    between atoms: _48  and  _51
REMARK   18  A    between atoms: _51  and  _52
REMARK   19  A    between atoms: _55  and  _57
REMARK   20  A    between atoms: _57  and  _58
REMARK   21  A    between atoms: _57  and  _60
REMARK   22  A    between atoms: _60  and  _61
REMARK   23  A    between atoms: _66  and  _68
REMARK   24  A    between atoms: _68  and  _69
REMARK   25  A    between atoms: _68  and  _71
REMARK   26  A    between atoms: _71  and  _72
REMARK   27  A    between atoms: _77  and  _79
REMARK   28  A    between atoms: _79  and  _80
REMARK   29  A    between atoms: _83  and  _85
REMARK   30  A    between atoms: _85  and  _86
REMARK   31  A    between atoms: _85  and  _88
REMARK   32  A    between atoms: _88  and  _89
REMARK   33  A    between atoms: _94  and  _96
REMARK   34  A    between atoms: _96  and  _97
REMARK   35  A    between atoms: _96  and  _99
REMARK   36  A    between atoms: _99  and  _100
REMARK   37  A    between atoms: _100  and  _101
REMARK   38  A    between atoms: _104  and  _106
REMARK   39  A    between atoms: _106  and  _107
REMARK   40  A    between atoms: _106  and  _109
REMARK   41  A    between atoms: _109  and  _110
REMARK   42  A    between atoms: _113  and  _115
REMARK   43  A    between atoms: _115  and  _116
REMARK   44  A    between atoms: _115  and  _118
REMARK   45  A    between atoms: _118  and  _119
REMARK   46  A    between atoms: _119  and  _120
REMARK   47  A    between atoms: _125  and  _127
REMARK   48  A    between atoms: _127  and  _128
REMARK   49  A    between atoms: _127  and  _130
REMARK   50  A    between atoms: _130  and  _131
REMARK   51  A    between atoms: _137  and  _139
REMARK   52  A    between atoms: _150  and  _153
REMARK   53  A    between atoms: _153  and  _154
REMARK   54  A    between atoms: _162  and  _163
REMARK   55  A    between atoms: _171  and  _173
REMARK   56  A    between atoms: _173  and  _174
REMARK   57  A    between atoms: _173  and  _176
REMARK   58  A    between atoms: _176  and  _177
REMARK   59  A    between atoms: _177  and  _178
REMARK   60  A    between atoms: _181  and  _183
REMARK   61  A    between atoms: _183  and  _184
REMARK   62  A    between atoms: _183  and  _186
REMARK   63  A    between atoms: _186  and  _187
REMARK   64  A    between atoms: _192  and  _194
REMARK   65  A    between atoms: _194  and  _195
REMARK   66  A    between atoms: _194  and  _197
REMARK   67  A    between atoms: _197  and  _198
REMARK   68  A    between atoms: _198  and  _199
REMARK   69  A    between atoms: _202  and  _204
REMARK   70  A    between atoms: _204  and  _205
REMARK   71  A    between atoms: _204  and  _207
REMARK   72  A    between atoms: _207  and  _208
REMARK   73  A    between atoms: _211  and  _213
REMARK   74  A    between atoms: _213  and  _214
REMARK   75  A    between atoms: _213  and  _216
REMARK   76  A    between atoms: _216  and  _217
REMARK   77  A    between atoms: _218  and  ZN_450
REMARK   78  A    between atoms: _222  and  _224
REMARK   79  A    between atoms: _224  and  _225
REMARK   80  A    between atoms: _224  and  _227
REMARK   81  A    between atoms: _227  and  _228
REMARK   82  A    between atoms: _231  and  _233
REMARK   83  A    between atoms: _233  and  _234
REMARK   84  A    between atoms: _233  and  _236
REMARK   85  A    between atoms: _239  and  _241
REMARK   86  A    between atoms: _241  and  _242
REMARK   87  A    between atoms: _241  and  _244
REMARK   88  A    between atoms: _244  and  _245
REMARK   89  A    between atoms: _250  and  _252
REMARK   90  A    between atoms: _252  and  _253
REMARK   91  A    between atoms: _252  and  _255
REMARK   92  A    between atoms: _255  and  _256
REMARK   93  A    between atoms: _262  and  _264
REMARK   94  A    between atoms: _264  and  _265
REMARK   95  A    between atoms: _267  and  _269
REMARK   96  A    between atoms: _269  and  _270
REMARK   97  A    between atoms: _269  and  _272
REMARK   98  A    between atoms: _275  and  _277
REMARK   99  A    between atoms: _277  and  _278
REMARK  100  A    between atoms: _277  and  _280
REMARK  101  A    between atoms: _280  and  _281
REMARK  102  A    between atoms: _281  and  _282
REMARK  103  A    between atoms: _287  and  _289
REMARK  104  A    between atoms: _289  and  _290
REMARK  105  A    between atoms: _289  and  _292
REMARK  106  A    between atoms: _292  and  _293
REMARK  107  A    between atoms: _296  and  _298
REMARK  108  A    between atoms: _298  and  _299
REMARK  109  A    between atoms: _302  and  _304
REMARK  110  A    between atoms: _304  and  _305
REMARK  111  A    between atoms: _304  and  _307
REMARK  112  A    between atoms: _310  and  _312
REMARK  113  A    between atoms: _312  and  _313
REMARK  114  A    between atoms: _312  and  _315
REMARK  115  A    between atoms: _315  and  _316
REMARK  116  A    between atoms: _319  and  _321
REMARK  117  A    between atoms: _321  and  _322
REMARK  118  A    between atoms: _324  and  _326
REMARK  119  A    between atoms: _326  and  _327
REMARK  120  A    between atoms: _326  and  _329
REMARK  121  A    between atoms: _329  and  _330
REMARK  122  A    between atoms: _332  and  _334
REMARK  123  A    between atoms: _334  and  _335
REMARK  124  A    between atoms: _334  and  _337
REMARK  125  A    between atoms: _337  and  _338
REMARK  126  A    between atoms: _341  and  _343
REMARK  127  A    between atoms: _343  and  _344
REMARK  128  A    between atoms: _343  and  _346
REMARK  129  A    between atoms: _346  and  _347
REMARK  130  A    between atoms: _350  and  _352
REMARK  131  A    between atoms: _352  and  _353
REMARK  132  A    between atoms: _352  and  _355
REMARK  133  A    between atoms: _355  and  _356
REMARK  134  A    between atoms: _360  and  _361
REMARK  135  A    between atoms: _367  and  _368
REMARK  136  A    between atoms: _373  and  _375
REMARK  137  A    between atoms: _375  and  _376
REMARK  138  A    between atoms: _375  and  _378
REMARK  139  A    between atoms: _378  and  _379
REMARK  140  A    between atoms: _382  and  _384
REMARK  141  A    between atoms: _384  and  _385
REMARK  142  A    between atoms: _384  and  _387
REMARK  143  A    between atoms: _387  and  _388
REMARK  144  A    between atoms: _391  and  _393
REMARK  145  A    between atoms: _393  and  _394
REMARK  146  A    between atoms: _393  and  _396
REMARK  147  A    between atoms: _398  and  _400
REMARK  148  A    between atoms: _400  and  _401
REMARK  149  A    between atoms: _400  and  _403
REMARK  150  A    between atoms: _406  and  _408
REMARK  151  A    between atoms: _408  and  _409
REMARK  152  A    between atoms: _408  and  _411
REMARK  153  A    between atoms: _411  and  _412
REMARK  154  A    between atoms: _422  and  _424
REMARK  155  A    between atoms: _424  and  _425
REMARK  156  A    between atoms: _424  and  _427
REMARK  157  A    between atoms: _427  and  _428
REMARK  158  A    between atoms: _433  and  _435
REMARK  159  A    between atoms: _435  and  _436
REMARK  160  A    between atoms: _435  and  _438
REMARK  161  A    between atoms: _438  and  _439
REMARK  162  A    between atoms: _439  and  _440
REMARK  163  A    between atoms: _440  and  _441
REMARK                            x       y       z     vdW  Elec       q    Type
REMARK                         _______ _______ _______ _____ _____    ______ ____
ROOT
ATOM      1  C   GLU A   1      -5.837  -8.404  21.041  0.00  0.00    +0.238 C 
ATOM      2  O   GLU A   1      -5.083  -8.988  21.785  0.00  0.00    -0.274 OA
ATOM      3  N   HIS A   2      -7.010  -7.970  21.443  0.00  0.00    -0.298 N 
ATOM      4  H   HIS A   2      -7.578  -7.350  20.831  0.00  0.00    +0.150 HD
ENDROOT
BRANCH   1   5
ATOM      5  CA  GLU A   1      -5.514  -8.237  19.558  0.00  0.00    +0.145 C 
BRANCH   5   6
ATOM      6  N   GLU A   1      -6.522  -8.934  18.744  0.00  0.00    -0.238 NA
ATOM      7  H   GLU A   1      -7.391  -8.425  18.486  0.00  0.00    +0.142 HD
ENDBRANCH   5   6
BRANCH   5   8
ATOM      8  CB  GLU A   1      -5.496  -6.782  19.153  0.00  0.00    +0.038 C 
BRANCH   8   9
ATOM      9  CG  GLU A   1      -5.104  -6.646  17.680  0.00  0.00    +0.116 C 
BRANCH   9  10
ATOM     10  CD  GLU A   1      -4.398  -5.353  17.383  0.00  0.00    +0.365 C 
ATOM     11  OE2 GLU A   1      -4.991  -4.257  17.597  0.00  0.00    -0.246 OA
ATOM     12  OE1 GLU A   1      -3.230  -5.394  16.950  0.00  0.00    -0.246 OA
ENDBRANCH   9  10
ENDBRANCH   8   9
ENDBRANCH   5   8
ENDBRANCH   1   5
BRANCH   3  13
ATOM     13  CA  HIS A   2      -7.510  -8.366  22.759  0.00  0.00    +0.143 C 
BRANCH  13  14
ATOM     14  C   HIS A   2      -7.809  -9.854  22.809  0.00  0.00    +0.227 C 
ATOM     15  O   HIS A   2      -8.135 -10.452  21.791  0.00  0.00    -0.286 OA
ENDBRANCH  13  14
BRANCH  13  16
ATOM     16  CB  HIS A   2      -8.744  -7.575  23.128  0.00  0.00    +0.075 C 
BRANCH  16  17
ATOM     17  CG  HIS A   2      -8.447  -6.129  23.311  0.00  0.00    +0.082 A 
ATOM     18  CD2 HIS A   2      -8.049  -5.440  24.407  0.00  0.00    +0.115 A 
ATOM     19  NE2 HIS A   2      -7.812  -4.152  24.008  0.00  0.00    -0.221 NA
ATOM     20  CE1 HIS A   2      -8.059  -4.050  22.714  0.00  0.00    +0.199 A 
ATOM     21  ND1 HIS A   2      -8.461  -5.227  22.274  0.00  0.00    -0.227 NA
ENDBRANCH  16  17
ENDBRANCH  13  16
ENDBRANCH   3  13
TORSDOF 9
REMARK  Name = ../refined-set-2016/3oy0/3oy0_pocket.pdb
REMARK  163 active torsions:
REMARK  status: ('A' for Active; 'I' for Inactive)
REMARK    1  A    between atoms: _1  and  _3
REMARK    2  A    between atoms: _3  and  _4
REMARK    3  A    between atoms: _3  and  _6
REMARK    4  A    between atoms: _6  and  _7
REMARK    5  A    between atoms: _17  and  _19
REMARK    6  A    between atoms: _19  and  _20
REMARK    7  A    between atoms: _19  and  _22
REMARK    8  A    between atoms: _22  and  _23
REMARK    9  A    between atoms: _28  and  _29
REMARK   10  A    between atoms: _31  and  _33
REMARK   11  A    between atoms: _33  and  _34
REMARK   12  A    between atoms: _33  and  _36
REMARK   13  A    between atoms: _36  and  _37
REMARK   14  A    between atoms: _40  and  _41
REMARK   15  A    between atoms: _46  and  _48
REMARK   16  A    between atoms: _48  and  _49
REMARK   17  A    between atoms: _48  and  _51
REMARK   18  A    between atoms: _51  and  _52
REMARK   19  A    between atoms: _55  and  _57
REMARK   20  A    between atoms: _57  and  _58
REMARK   21  A    between atoms: _57  and  _60
REMARK   22  A    between atoms: _60  and  _61
REMARK   23  A    between atoms: _66  and  _68
REMARK   24  A    between atoms: _68  and  _69
REMARK   25  A    between atoms: _68  and  _71
REMARK   26  A    between atoms: _71  and  _72
REMARK   27  A    between atoms: _77  and  _79
REMARK   28  A    between atoms: _79  and  _80
REMARK   29  A    between atoms: _83  and  _85
REMARK   30  A    between atoms: _85  and  _86
REMARK   31  A    between atoms: _85  and  _88
REMARK   32  A    between atoms: _88  and  _89
REMARK   33  A    between atoms: _94  and  _96
REMARK   34  A    between atoms: _96  and  _97
REMARK   35  A    between atoms: _96  and  _99
REMARK   36  A    between atoms: _99  and  _100
REMARK   37  A    between atoms: _100  and  _101
REMARK   38  A    between atoms: _104  and  _106
REMARK   39  A    between atoms: _106  and  _107
REMARK   40  A    between atoms: _106  and  _109
REMARK   41  A    between atoms: _109  and  _110
REMARK   42  A    between atoms: _113  and  _115
REMARK   43  A    between atoms: _115  and  _116
REMARK   44  A    between atoms: _115  and  _118
REMARK   45  A    between atoms: _118  and  _119
REMARK   46  A    between atoms: _119  and  _120
REMARK   47  A    between atoms: _125  and  _127
REMARK   48  A    between atoms: _127  and  _128
REMARK   49  A    between atoms: _127  and  _130
REMARK   50  A    between atoms: _130  and  _131
REMARK   51  A    between atoms: _137  and  _139
REMARK   52  A    between atoms: _150  and  _153
REMARK   53  A    between atoms: _153  and  _154
REMARK   54  A    between atoms: _162  and  _163
REMARK   55  A    between atoms: _171  and  _173
REMARK   56  A    between atoms: _173  and  _174
REMARK   57  A    between atoms: _173  and  _176
REMARK   58  A    between atoms: _176  and  _177
REMARK   59  A    between atoms: _177  and  _178
REMARK   60  A    between atoms: _181  and  _183
REMARK   61  A    between atoms: _183  and  _184
REMARK   62  A    between atoms: _183  and  _186
REMARK   63  A    between atoms: _186  and  _187
REMARK   64  A    between atoms: _192  and  _194
REMARK   65  A    between atoms: _194  and  _195
REMARK   66  A    between atoms: _194  and  _197
REMARK   67  A    between atoms: _197  and  _198
REMARK   68  A    between atoms: _198  and  _199
REMARK   69  A    between atoms: _202  and  _204
REMARK   70  A    between atoms: _204  and  _205
REMARK   71  A    between atoms: _204  and  _207
REMARK   72  A    between atoms: _207  and  _208
REMARK   73  A    between atoms: _211  and  _213
REMARK   74  A    between atoms: _213  and  _214
REMARK   75  A    between atoms: _213  and  _216
REMARK   76  A    between atoms: _216  and  _217
REMARK   77  A    between atoms: _218  and  ZN_450
REMARK   78  A    between atoms: _222  and  _224
REMARK   79  A    between atoms: _224  and  _225
REMARK   80  A    between atoms: _224  and  _227
REMARK   81  A    between atoms: _227  and  _228
REMARK   82  A    between atoms: _231  and  _233
REMARK   83  A    between atoms: _233  and  _234
REMARK   84  A    between atoms: _233  and  _236
REMARK   85  A    between atoms: _239  and  _241
REMARK   86  A    between atoms: _241  and  _242
REMARK   87  A    between atoms: _241  and  _244
REMARK   88  A    between atoms: _244  and  _245
REMARK   89  A    between atoms: _250  and  _252
REMARK   90  A    between atoms: _252  and  _253
REMARK   91  A    between atoms: _252  and  _255
REMARK   92  A    between atoms: _255  and  _256
REMARK   93  A    between atoms: _262  and  _264
REMARK   94  A    between atoms: _264  and  _265
REMARK   95  A    between atoms: _267  and  _269
REMARK   96  A    between atoms: _269  and  _270
REMARK   97  A    between atoms: _269  and  _272
REMARK   98  A    between atoms: _275  and  _277
REMARK   99  A    between atoms: _277  and  _278
REMARK  100  A    between atoms: _277  and  _280
REMARK  101  A    between atoms: _280  and  _281
REMARK  102  A    between atoms: _281  and  _282
REMARK  103  A    between atoms: _287  and  _289
REMARK  104  A    between atoms: _289  and  _290
REMARK  105  A    between atoms: _289  and  _292
REMARK  106  A    between atoms: _292  and  _293
REMARK  107  A    between atoms: _296  and  _298
REMARK  108  A    between atoms: _298  and  _299
REMARK  109  A    between atoms: _302  and  _304
REMARK  110  A    between atoms: _304  and  _305
REMARK  111  A    between atoms: _304  and  _307
REMARK  112  A    between atoms: _310  and  _312
REMARK  113  A    between atoms: _312  and  _313
REMARK  114  A    between atoms: _312  and  _315
REMARK  115  A    between atoms: _315  and  _316
REMARK  116  A    between atoms: _319  and  _321
REMARK  117  A    between atoms: _321  and  _322
REMARK  118  A    between atoms: _324  and  _326
REMARK  119  A    between atoms: _326  and  _327
REMARK  120  A    between atoms: _326  and  _329
REMARK  121  A    between atoms: _329  and  _330
REMARK  122  A    between atoms: _332  and  _334
REMARK  123  A    between atoms: _334  and  _335
REMARK  124  A    between atoms: _334  and  _337
REMARK  125  A    between atoms: _337  and  _338
REMARK  126  A    between atoms: _341  and  _343
REMARK  127  A    between atoms: _343  and  _344
REMARK  128  A    between atoms: _343  and  _346
REMARK  129  A    between atoms: _346  and  _347
REMARK  130  A    between atoms: _350  and  _352
REMARK  131  A    between atoms: _352  and  _353
REMARK  132  A    between atoms: _352  and  _355
REMARK  133  A    between atoms: _355  and  _356
REMARK  134  A    between atoms: _360  and  _361
REMARK  135  A    between atoms: _367  and  _368
REMARK  136  A    between atoms: _373  and  _375
REMARK  137  A    between atoms: _375  and  _376
REMARK  138  A    between atoms: _375  and  _378
REMARK  139  A    between atoms: _378  and  _379
REMARK  140  A    between atoms: _382  and  _384
REMARK  141  A    between atoms: _384  and  _385
REMARK  142  A    between atoms: _384  and  _387
REMARK  143  A    between atoms: _387  and  _388
REMARK  144  A    between atoms: _391  and  _393
REMARK  145  A    between atoms: _393  and  _394
REMARK  146  A    between atoms: _393  and  _396
REMARK  147  A    between atoms: _398  and  _400
REMARK  148  A    between atoms: _400  and  _401
REMARK  149  A    between atoms: _400  and  _403
REMARK  150  A    between atoms: _406  and  _408
REMARK  151  A    between atoms: _408  and  _409
REMARK  152  A    between atoms: _408  and  _411
REMARK  153  A    between atoms: _411  and  _412
REMARK  154  A    between atoms: _422  and  _424
REMARK  155  A    between atoms: _424  and  _425
REMARK  156  A    between atoms: _424  and  _427
REMARK  157  A    between atoms: _427  and  _428
REMARK  158  A    between atoms: _433  and  _435
REMARK  159  A    between atoms: _435  and  _436
REMARK  160  A    between atoms: _435  and  _438
REMARK  161  A    between atoms: _438  and  _439
REMARK  162  A    between atoms: _439  and  _440
REMARK  163  A    between atoms: _440  and  _441
REMARK                            x       y       z     vdW  Elec       q    Type
REMARK                         _______ _______ _______ _____ _____    ______ ____
ROOT
ATOM      1  CA  PHE A   1      -7.613  13.754  15.183  0.00  0.00    +0.149 C 
ENDROOT
BRANCH   1   2
ATOM      2  C   PHE A   1      -6.162  13.834  15.587  0.00  0.00    +0.239 C 
ATOM      3  O   PHE A   1      -5.752  13.206  16.564  0.00  0.00    -0.274 OA
ATOM      4  N   GLY A   2      -5.344  14.571  14.825  0.00  0.00    -0.297 N 
ATOM      5  H   GLY A   2      -5.704  15.040  13.970  0.00  0.00    +0.150 HD
BRANCH   4   6
ATOM      6  CA  GLY A   2      -3.947  14.709  15.205  0.00  0.00    +0.163 C 
BRANCH   6   7
ATOM      7  C   GLY A   2      -3.698  15.326  16.577  0.00  0.00    +0.229 C 
ATOM      8  O   GLY A   2      -2.731  14.979  17.243  0.00  0.00    -0.286 OA
ENDBRANCH   6   7
ENDBRANCH   4   6
ENDBRANCH   1   2
BRANCH   1   9
ATOM      9  N   PHE A   1      -8.146  15.057  14.787  0.00  0.00    -0.238 NA
ATOM     10  H   PHE A   1      -8.464  15.192  13.806  0.00  0.00    +0.142 HD
ENDBRANCH   1   9
BRANCH   1  11
ATOM     11  CB  PHE A   1      -7.778  12.771  14.024  0.00  0.00    +0.053 C 
BRANCH  11  12
ATOM     12  CG  PHE A   1      -7.260  11.396  14.302  0.00  0.00    -0.020 A 
ATOM     13  CD2 PHE A   1      -7.993  10.499  15.083  0.00  0.00    -0.004 A 
ATOM     14  CE2 PHE A   1      -7.539   9.238  15.347  0.00  0.00    -0.000 A 
ATOM     15  CZ  PHE A   1      -6.336   8.826  14.848  0.00  0.00    -0.000 A 
ATOM     16  CE1 PHE A   1      -5.566   9.717  14.072  0.00  0.00    -0.000 A 
ATOM     17  CD1 PHE A   1      -6.036  10.981  13.815  0.00  0.00    -0.004 A 
ENDBRANCH  11  12
ENDBRANCH   1  11
TORSDOF 6
REMARK  Name = ../refined-set-2016/3oy0/3oy0_pocket.pdb
REMARK  163 active torsions:
REMARK  status: ('A' for Active; 'I' for Inactive)
REMARK    1  A    between atoms: _1  and  _3
REMARK    2  A    between atoms: _3  and  _4
REMARK    3  A    between atoms: _3  and  _6
REMARK    4  A    between atoms: _6  and  _7
REMARK    5  A    between atoms: _17  and  _19
REMARK    6  A    between atoms: _19  and  _20
REMARK    7  A    between atoms: _19  and  _22
REMARK    8  A    between atoms: _22  and  _23
REMARK    9  A    between atoms: _28  and  _29
REMARK   10  A    between atoms: _31  and  _33
REMARK   11  A    between atoms: _33  and  _34
REMARK   12  A    between atoms: _33  and  _36
REMARK   13  A    between atoms: _36  and  _37
REMARK   14  A    between atoms: _40  and  _41
REMARK   15  A    between atoms: _46  and  _48
REMARK   16  A    between atoms: _48  and  _49
REMARK   17  A    between atoms: _48  and  _51
REMARK   18  A    between atoms: _51  and  _52
REMARK   19  A    between atoms: _55  and  _57
REMARK   20  A    between atoms: _57  and  _58
REMARK   21  A    between atoms: _57  and  _60
REMARK   22  A    between atoms: _60  and  _61
REMARK   23  A    between atoms: _66  and  _68
REMARK   24  A    between atoms: _68  and  _69
REMARK   25  A    between atoms: _68  and  _71
REMARK   26  A    between atoms: _71  and  _72
REMARK   27  A    between atoms: _77  and  _79
REMARK   28  A    between atoms: _79  and  _80
REMARK   29  A    between atoms: _83  and  _85
REMARK   30  A    between atoms: _85  and  _86
REMARK   31  A    between atoms: _85  and  _88
REMARK   32  A    between atoms: _88  and  _89
REMARK   33  A    between atoms: _94  and  _96
REMARK   34  A    between atoms: _96  and  _97
REMARK   35  A    between atoms: _96  and  _99
REMARK   36  A    between atoms: _99  and  _100
REMARK   37  A    between atoms: _100  and  _101
REMARK   38  A    between atoms: _104  and  _106
REMARK   39  A    between atoms: _106  and  _107
REMARK   40  A    between atoms: _106  and  _109
REMARK   41  A    between atoms: _109  and  _110
REMARK   42  A    between atoms: _113  and  _115
REMARK   43  A    between atoms: _115  and  _116
REMARK   44  A    between atoms: _115  and  _118
REMARK   45  A    between atoms: _118  and  _119
REMARK   46  A    between atoms: _119  and  _120
REMARK   47  A    between atoms: _125  and  _127
REMARK   48  A    between atoms: _127  and  _128
REMARK   49  A    between atoms: _127  and  _130
REMARK   50  A    between atoms: _130  and  _131
REMARK   51  A    between atoms: _137  and  _139
REMARK   52  A    between atoms: _150  and  _153
REMARK   53  A    between atoms: _153  and  _154
REMARK   54  A    between atoms: _162  and  _163
REMARK   55  A    between atoms: _171  and  _173
REMARK   56  A    between atoms: _173  and  _174
REMARK   57  A    between atoms: _173  and  _176
REMARK   58  A    between atoms: _176  and  _177
REMARK   59  A    between atoms: _177  and  _178
REMARK   60  A    between atoms: _181  and  _183
REMARK   61  A    between atoms: _183  and  _184
REMARK   62  A    between atoms: _183  and  _186
REMARK   63  A    between atoms: _186  and  _187
REMARK   64  A    between atoms: _192  and  _194
REMARK   65  A    between atoms: _194  and  _195
REMARK   66  A    between atoms: _194  and  _197
REMARK   67  A    between atoms: _197  and  _198
REMARK   68  A    between atoms: _198  and  _199
REMARK   69  A    between atoms: _202  and  _204
REMARK   70  A    between atoms: _204  and  _205
REMARK   71  A    between atoms: _204  and  _207
REMARK   72  A    between atoms: _207  and  _208
REMARK   73  A    between atoms: _211  and  _213
REMARK   74  A    between atoms: _213  and  _214
REMARK   75  A    between atoms: _213  and  _216
REMARK   76  A    between atoms: _216  and  _217
REMARK   77  A    between atoms: _218  and  ZN_450
REMARK   78  A    between atoms: _222  and  _224
REMARK   79  A    between atoms: _224  and  _225
REMARK   80  A    between atoms: _224  and  _227
REMARK   81  A    between atoms: _227  and  _228
REMARK   82  A    between atoms: _231  and  _233
REMARK   83  A    between atoms: _233  and  _234
REMARK   84  A    between atoms: _233  and  _236
REMARK   85  A    between atoms: _239  and  _241
REMARK   86  A    between atoms: _241  and  _242
REMARK   87  A    between atoms: _241  and  _244
REMARK   88  A    between atoms: _244  and  _245
REMARK   89  A    between atoms: _250  and  _252
REMARK   90  A    between atoms: _252  and  _253
REMARK   91  A    between atoms: _252  and  _255
REMARK   92  A    between atoms: _255  and  _256
REMARK   93  A    between atoms: _262  and  _264
REMARK   94  A    between atoms: _264  and  _265
REMARK   95  A    between atoms: _267  and  _269
REMARK   96  A    between atoms: _269  and  _270
REMARK   97  A    between atoms: _269  and  _272
REMARK   98  A    between atoms: _275  and  _277
REMARK   99  A    between atoms: _277  and  _278
REMARK  100  A    between atoms: _277  and  _280
REMARK  101  A    between atoms: _280  and  _281
REMARK  102  A    between atoms: _281  and  _282
REMARK  103  A    between atoms: _287  and  _289
REMARK  104  A    between atoms: _289  and  _290
REMARK  105  A    between atoms: _289  and  _292
REMARK  106  A    between atoms: _292  and  _293
REMARK  107  A    between atoms: _296  and  _298
REMARK  108  A    between atoms: _298  and  _299
REMARK  109  A    between atoms: _302  and  _304
REMARK  110  A    between atoms: _304  and  _305
REMARK  111  A    between atoms: _304  and  _307
REMARK  112  A    between atoms: _310  and  _312
REMARK  113  A    between atoms: _312  and  _313
REMARK  114  A    between atoms: _312  and  _315
REMARK  115  A    between atoms: _315  and  _316
REMARK  116  A    between atoms: _319  and  _321
REMARK  117  A    between atoms: _321  and  _322
REMARK  118  A    between atoms: _324  and  _326
REMARK  119  A    between atoms: _326  and  _327
REMARK  120  A    between atoms: _326  and  _329
REMARK  121  A    between atoms: _329  and  _330
REMARK  122  A    between atoms: _332  and  _334
REMARK  123  A    between atoms: _334  and  _335
REMARK  124  A    between atoms: _334  and  _337
REMARK  125  A    between atoms: _337  and  _338
REMARK  126  A    between atoms: _341  and  _343
REMARK  127  A    between atoms: _343  and  _344
REMARK  128  A    between atoms: _343  and  _346
REMARK  129  A    between atoms: _346  and  _347
REMARK  130  A    between atoms: _350  and  _352
REMARK  131  A    between atoms: _352  and  _353
REMARK  132  A    between atoms: _352  and  _355
REMARK  133  A    between atoms: _355  and  _356
REMARK  134  A    between atoms: _360  and  _361
REMARK  135  A    between atoms: _367  and  _368
REMARK  136  A    between atoms: _373  and  _375
REMARK  137  A    between atoms: _375  and  _376
REMARK  138  A    between atoms: _375  and  _378
REMARK  139  A    between atoms: _378  and  _379
REMARK  140  A    between atoms: _382  and  _384
REMARK  141  A    between atoms: _384  and  _385
REMARK  142  A    between atoms: _384  and  _387
REMARK  143  A    between atoms: _387  and  _388
REMARK  144  A    between atoms: _391  and  _393
REMARK  145  A    between atoms: _393  and  _394
REMARK  146  A    between atoms: _393  and  _396
REMARK  147  A    between atoms: _398  and  _400
REMARK  148  A    between atoms: _400  and  _401
REMARK  149  A    between atoms: _400  and  _403
REMARK  150  A    between atoms: _406  and  _408
REMARK  151  A    between atoms: _408  and  _409
REMARK  152  A    between atoms: _408  and  _411
REMARK  153  A    between atoms: _411  and  _412
REMARK  154  A    between atoms: _422  and  _424
REMARK  155  A    between atoms: _424  and  _425
REMARK  156  A    between atoms: _424  and  _427
REMARK  157  A    between atoms: _427  and  _428
REMARK  158  A    between atoms: _433  and  _435
REMARK  159  A    between atoms: _435  and  _436
REMARK  160  A    between atoms: _435  and  _438
REMARK  161  A    between atoms: _438  and  _439
REMARK  162  A    between atoms: _439  and  _440
REMARK  163  A    between atoms: _440  and  _441
REMARK                            x       y       z     vdW  Elec       q    Type
REMARK                         _______ _______ _______ _____ _____    ______ ____
ROOT
ATOM      1  C   VAL A   1      -2.827  11.845  20.712  0.00  0.00    +0.238 C 
ATOM      2  O   VAL A   1      -2.146  10.963  21.242  0.00  0.00    -0.274 OA
ATOM      3  N   GLN A   2      -2.670  13.146  20.960  0.00  0.00    -0.298 N 
ATOM      4  H   GLN A   2      -3.270  13.828  20.453  0.00  0.00    +0.150 HD
ENDROOT
BRANCH   1   5
ATOM      5  CA  VAL A   1      -3.927  11.456  19.713  0.00  0.00    +0.145 C 
BRANCH   5   6
ATOM      6  CB  VAL A   1      -3.286  10.748  18.495  0.00  0.00    +0.025 C 
ATOM      7  CG2 VAL A   1      -2.427  11.687  17.682  0.00  0.00    +0.002 C 
ATOM      8  CG1 VAL A   1      -4.354  10.121  17.627  0.00  0.00    +0.002 C 
ENDBRANCH   5   6
BRANCH   5   9
ATOM      9  N   VAL A   1      -4.833  12.575  19.385  0.00  0.00    -0.238 NA
ATOM     10  H   VAL A   1      -4.850  12.970  18.423  0.00  0.00    +0.142 HD
ENDBRANCH   5   9
ENDBRANCH   1   5
BRANCH   3  11
ATOM     11  CA  GLN A   2      -1.681  13.653  21.922  0.00  0.00    +0.137 C 
BRANCH  11  12
ATOM     12  C   GLN A   2      -2.293  13.847  23.317  0.00  0.00    +0.227 C 
ATOM     13  O   GLN A   2      -1.644  14.429  24.215  0.00  0.00    -0.286 OA
ENDBRANCH  11  12
BRANCH  11  14
ATOM     14  CB  GLN A   2      -1.117  14.982  21.414  0.00  0.00    +0.037 C 
BRANCH  14  15
ATOM     15  CG  GLN A   2      -0.340  14.835  20.094  0.00  0.00    +0.087 C 
BRANCH  15  16
ATOM     16  CD  GLN A   2       0.846  13.837  20.165  0.00  0.00    +0.219 C 
ATOM     17  NE2 GLN A   2       1.368  13.591  21.371  0.00  0.00    -0.329 N 
ATOM     18 HE21 GLN A   2       0.973  14.056  22.213  0.00  0.00    +0.145 HD
ATOM     19 HE22 GLN A   2       2.169  12.935  21.467  0.00  0.00    +0.145 HD
ATOM     20  OE1 GLN A   2       1.284  13.307  19.135  0.00  0.00    -0.275 OA
ENDBRANCH  15  16
ENDBRANCH  14  15
ENDBRANCH  11  14
ENDBRANCH   3  11
TORSDOF 8
REMARK  Name = ../refined-set-2016/3oy0/3oy0_pocket.pdb
REMARK  163 active torsions:
REMARK  status: ('A' for Active; 'I' for Inactive)
REMARK    1  A    between atoms: _1  and  _3
REMARK    2  A    between atoms: _3  and  _4
REMARK    3  A    between atoms: _3  and  _6
REMARK    4  A    between atoms: _6  and  _7
REMARK    5  A    between atoms: _17  and  _19
REMARK    6  A    between atoms: _19  and  _20
REMARK    7  A    between atoms: _19  and  _22
REMARK    8  A    between atoms: _22  and  _23
REMARK    9  A    between atoms: _28  and  _29
REMARK   10  A    between atoms: _31  and  _33
REMARK   11  A    between atoms: _33  and  _34
REMARK   12  A    between atoms: _33  and  _36
REMARK   13  A    between atoms: _36  and  _37
REMARK   14  A    between atoms: _40  and  _41
REMARK   15  A    between atoms: _46  and  _48
REMARK   16  A    between atoms: _48  and  _49
REMARK   17  A    between atoms: _48  and  _51
REMARK   18  A    between atoms: _51  and  _52
REMARK   19  A    between atoms: _55  and  _57
REMARK   20  A    between atoms: _57  and  _58
REMARK   21  A    between atoms: _57  and  _60
REMARK   22  A    between atoms: _60  and  _61
REMARK   23  A    between atoms: _66  and  _68
REMARK   24  A    between atoms: _68  and  _69
REMARK   25  A    between atoms: _68  and  _71
REMARK   26  A    between atoms: _71  and  _72
REMARK   27  A    between atoms: _77  and  _79
REMARK   28  A    between atoms: _79  and  _80
REMARK   29  A    between atoms: _83  and  _85
REMARK   30  A    between atoms: _85  and  _86
REMARK   31  A    between atoms: _85  and  _88
REMARK   32  A    between atoms: _88  and  _89
REMARK   33  A    between atoms: _94  and  _96
REMARK   34  A    between atoms: _96  and  _97
REMARK   35  A    between atoms: _96  and  _99
REMARK   36  A    between atoms: _99  and  _100
REMARK   37  A    between atoms: _100  and  _101
REMARK   38  A    between atoms: _104  and  _106
REMARK   39  A    between atoms: _106  and  _107
REMARK   40  A    between atoms: _106  and  _109
REMARK   41  A    between atoms: _109  and  _110
REMARK   42  A    between atoms: _113  and  _115
REMARK   43  A    between atoms: _115  and  _116
REMARK   44  A    between atoms: _115  and  _118
REMARK   45  A    between atoms: _118  and  _119
REMARK   46  A    between atoms: _119  and  _120
REMARK   47  A    between atoms: _125  and  _127
REMARK   48  A    between atoms: _127  and  _128
REMARK   49  A    between atoms: _127  and  _130
REMARK   50  A    between atoms: _130  and  _131
REMARK   51  A    between atoms: _137  and  _139
REMARK   52  A    between atoms: _150  and  _153
REMARK   53  A    between atoms: _153  and  _154
REMARK   54  A    between atoms: _162  and  _163
REMARK   55  A    between atoms: _171  and  _173
REMARK   56  A    between atoms: _173  and  _174
REMARK   57  A    between atoms: _173  and  _176
REMARK   58  A    between atoms: _176  and  _177
REMARK   59  A    between atoms: _177  and  _178
REMARK   60  A    between atoms: _181  and  _183
REMARK   61  A    between atoms: _183  and  _184
REMARK   62  A    between atoms: _183  and  _186
REMARK   63  A    between atoms: _186  and  _187
REMARK   64  A    between atoms: _192  and  _194
REMARK   65  A    between atoms: _194  and  _195
REMARK   66  A    between atoms: _194  and  _197
REMARK   67  A    between atoms: _197  and  _198
REMARK   68  A    between atoms: _198  and  _199
REMARK   69  A    between atoms: _202  and  _204
REMARK   70  A    between atoms: _204  and  _205
REMARK   71  A    between atoms: _204  and  _207
REMARK   72  A    between atoms: _207  and  _208
REMARK   73  A    between atoms: _211  and  _213
REMARK   74  A    between atoms: _213  and  _214
REMARK   75  A    between atoms: _213  and  _216
REMARK   76  A    between atoms: _216  and  _217
REMARK   77  A    between atoms: _218  and  ZN_450
REMARK   78  A    between atoms: _222  and  _224
REMARK   79  A    between atoms: _224  and  _225
REMARK   80  A    between atoms: _224  and  _227
REMARK   81  A    between atoms: _227  and  _228
REMARK   82  A    between atoms: _231  and  _233
REMARK   83  A    between atoms: _233  and  _234
REMARK   84  A    between atoms: _233  and  _236
REMARK   85  A    between atoms: _239  and  _241
REMARK   86  A    between atoms: _241  and  _242
REMARK   87  A    between atoms: _241  and  _244
REMARK   88  A    between atoms: _244  and  _245
REMARK   89  A    between atoms: _250  and  _252
REMARK   90  A    between atoms: _252  and  _253
REMARK   91  A    between atoms: _252  and  _255
REMARK   92  A    between atoms: _255  and  _256
REMARK   93  A    between atoms: _262  and  _264
REMARK   94  A    between atoms: _264  and  _265
REMARK   95  A    between atoms: _267  and  _269
REMARK   96  A    between atoms: _269  and  _270
REMARK   97  A    between atoms: _269  and  _272
REMARK   98  A    between atoms: _275  and  _277
REMARK   99  A    between atoms: _277  and  _278
REMARK  100  A    between atoms: _277  and  _280
REMARK  101  A    between atoms: _280  and  _281
REMARK  102  A    between atoms: _281  and  _282
REMARK  103  A    between atoms: _287  and  _289
REMARK  104  A    between atoms: _289  and  _290
REMARK  105  A    between atoms: _289  and  _292
REMARK  106  A    between atoms: _292  and  _293
REMARK  107  A    between atoms: _296  and  _298
REMARK  108  A    between atoms: _298  and  _299
REMARK  109  A    between atoms: _302  and  _304
REMARK  110  A    between atoms: _304  and  _305
REMARK  111  A    between atoms: _304  and  _307
REMARK  112  A    between atoms: _310  and  _312
REMARK  113  A    between atoms: _312  and  _313
REMARK  114  A    between atoms: _312  and  _315
REMARK  115  A    between atoms: _315  and  _316
REMARK  116  A    between atoms: _319  and  _321
REMARK  117  A    between atoms: _321  and  _322
REMARK  118  A    between atoms: _324  and  _326
REMARK  119  A    between atoms: _326  and  _327
REMARK  120  A    between atoms: _326  and  _329
REMARK  121  A    between atoms: _329  and  _330
REMARK  122  A    between atoms: _332  and  _334
REMARK  123  A    between atoms: _334  and  _335
REMARK  124  A    between atoms: _334  and  _337
REMARK  125  A    between atoms: _337  and  _338
REMARK  126  A    between atoms: _341  and  _343
REMARK  127  A    between atoms: _343  and  _344
REMARK  128  A    between atoms: _343  and  _346
REMARK  129  A    between atoms: _346  and  _347
REMARK  130  A    between atoms: _350  and  _352
REMARK  131  A    between atoms: _352  and  _353
REMARK  132  A    between atoms: _352  and  _355
REMARK  133  A    between atoms: _355  and  _356
REMARK  134  A    between atoms: _360  and  _361
REMARK  135  A    between atoms: _367  and  _368
REMARK  136  A    between atoms: _373  and  _375
REMARK  137  A    between atoms: _375  and  _376
REMARK  138  A    between atoms: _375  and  _378
REMARK  139  A    between atoms: _378  and  _379
REMARK  140  A    between atoms: _382  and  _384
REMARK  141  A    between atoms: _384  and  _385
REMARK  142  A    between atoms: _384  and  _387
REMARK  143  A    between atoms: _387  and  _388
REMARK  144  A    between atoms: _391  and  _393
REMARK  145  A    between atoms: _393  and  _394
REMARK  146  A    between atoms: _393  and  _396
REMARK  147  A    between atoms: _398  and  _400
REMARK  148  A    between atoms: _400  and  _401
REMARK  149  A    between atoms: _400  and  _403
REMARK  150  A    between atoms: _406  and  _408
REMARK  151  A    between atoms: _408  and  _409
REMARK  152  A    between atoms: _408  and  _411
REMARK  153  A    between atoms: _411  and  _412
REMARK  154  A    between atoms: _422  and  _424
REMARK  155  A    between atoms: _424  and  _425
REMARK  156  A    between atoms: _424  and  _427
REMARK  157  A    between atoms: _427  and  _428
REMARK  158  A    between atoms: _433  and  _435
REMARK  159  A    between atoms: _435  and  _436
REMARK  160  A    between atoms: _435  and  _438
REMARK  161  A    between atoms: _438  and  _439
REMARK  162  A    between atoms: _439  and  _440
REMARK  163  A    between atoms: _440  and  _441
REMARK                            x       y       z     vdW  Elec       q    Type
REMARK                         _______ _______ _______ _____ _____    ______ ____
ROOT
ATOM      1  C   ALA A   2     -12.416   5.018  20.927  0.00  0.00    +0.241 C 
ATOM      2  N   VAL A   3     -11.905   3.812  21.158  0.00  0.00    -0.297 N 
ATOM      3  H   VAL A   3     -11.463   3.603  22.076  0.00  0.00    +0.150 HD
ATOM      4  O   ALA A   2     -12.824   5.353  19.799  0.00  0.00    -0.273 OA
ENDROOT
BRANCH   1   5
ATOM      5  CA  ALA A   2     -12.348   6.030  22.055  0.00  0.00    +0.149 C 
ATOM      6  CB  ALA A   2     -13.730   6.510  22.460  0.00  0.00    +0.031 C 
BRANCH   5   9
ATOM      7  C   LEU A   1     -10.534   7.657  22.198  0.00  0.00    +0.238 C 
ATOM      8  O   LEU A   1     -10.251   7.415  23.370  0.00  0.00    -0.274 OA
ATOM      9  N   ALA A   2     -11.561   7.140  21.543  0.00  0.00    -0.297 N 
ATOM     10  H   ALA A   2     -11.817   7.546  20.620  0.00  0.00    +0.150 HD
BRANCH   7  11
ATOM     11  CA  LEU A   1      -9.675   8.596  21.384  0.00  0.00    +0.145 C 
BRANCH  11  12
ATOM     12  N   LEU A   1      -8.989   9.564  22.263  0.00  0.00    -0.238 NA
ATOM     13  H   LEU A   1      -8.404   9.205  23.044  0.00  0.00    +0.142 HD
ENDBRANCH  11  12
BRANCH  11  14
ATOM     14  CB  LEU A   1      -8.665   7.765  20.590  0.00  0.00    +0.026 C 
BRANCH  14  15
ATOM     15  CG  LEU A   1      -7.683   8.424  19.628  0.00  0.00    +0.002 C 
ATOM     16  CD2 LEU A   1      -8.106   9.651  18.901  0.00  0.00    +0.000 C 
ATOM     17  CD1 LEU A   1      -7.128   7.379  18.652  0.00  0.00    +0.000 C 
ENDBRANCH  14  15
ENDBRANCH  11  14
ENDBRANCH   7  11
ENDBRANCH   5   9
ENDBRANCH   1   5
BRANCH   2  18
ATOM     18  CA  VAL A   3     -11.963   2.781  20.126  0.00  0.00    +0.149 C 
BRANCH  18  19
ATOM     19  C   VAL A   3     -12.916   1.698  20.600  0.00  0.00    +0.241 C 
ATOM     20  O   VAL A   3     -12.763   1.165  21.703  0.00  0.00    -0.273 OA
ATOM     21  N   LEU A   4     -13.936   1.441  19.791  0.00  0.00    -0.298 N 
ATOM     22  H   LEU A   4     -14.056   2.040  18.949  0.00  0.00    +0.150 HD
BRANCH  21  23
ATOM     23  CA  LEU A   4     -14.894   0.372  20.012  0.00  0.00    +0.137 C 
BRANCH  23  24
ATOM     24  C   LEU A   4     -14.341  -0.887  19.323  0.00  0.00    +0.227 C 
ATOM     25  O   LEU A   4     -14.178  -0.904  18.091  0.00  0.00    -0.286 OA
ENDBRANCH  23  24
BRANCH  23  26
ATOM     26  CB  LEU A   4     -16.244   0.813  19.431  0.00  0.00    +0.028 C 
BRANCH  26  27
ATOM     27  CG  LEU A   4     -17.384  -0.160  19.619  0.00  0.00    +0.002 C 
ATOM     28  CD2 LEU A   4     -17.659  -0.401  21.105  0.00  0.00    +0.000 C 
ATOM     29  CD1 LEU A   4     -18.617   0.425  18.935  0.00  0.00    +0.000 C 
ENDBRANCH  26  27
ENDBRANCH  23  26
ENDBRANCH  21  23
ENDBRANCH  18  19
BRANCH  18  30
ATOM     30  CB  VAL A   3     -10.571   2.187  19.810  0.00  0.00    +0.027 C 
ATOM     31  CG2 VAL A   3      -9.630   3.283  19.374  0.00  0.00    +0.002 C 
ATOM     32  CG1 VAL A   3     -10.678   1.154  18.673  0.00  0.00    +0.002 C 
ENDBRANCH  18  30
ENDBRANCH   2  18
TORSDOF 13
REMARK  Name = ../refined-set-2016/3oy0/3oy0_pocket.pdb
REMARK  163 active torsions:
REMARK  status: ('A' for Active; 'I' for Inactive)
REMARK    1  A    between atoms: _1  and  _3
REMARK    2  A    between atoms: _3  and  _4
REMARK    3  A    between atoms: _3  and  _6
REMARK    4  A    between atoms: _6  and  _7
REMARK    5  A    between atoms: _17  and  _19
REMARK    6  A    between atoms: _19  and  _20
REMARK    7  A    between atoms: _19  and  _22
REMARK    8  A    between atoms: _22  and  _23
REMARK    9  A    between atoms: _28  and  _29
REMARK   10  A    between atoms: _31  and  _33
REMARK   11  A    between atoms: _33  and  _34
REMARK   12  A    between atoms: _33  and  _36
REMARK   13  A    between atoms: _36  and  _37
REMARK   14  A    between atoms: _40  and  _41
REMARK   15  A    between atoms: _46  and  _48
REMARK   16  A    between atoms: _48  and  _49
REMARK   17  A    between atoms: _48  and  _51
REMARK   18  A    between atoms: _51  and  _52
REMARK   19  A    between atoms: _55  and  _57
REMARK   20  A    between atoms: _57  and  _58
REMARK   21  A    between atoms: _57  and  _60
REMARK   22  A    between atoms: _60  and  _61
REMARK   23  A    between atoms: _66  and  _68
REMARK   24  A    between atoms: _68  and  _69
REMARK   25  A    between atoms: _68  and  _71
REMARK   26  A    between atoms: _71  and  _72
REMARK   27  A    between atoms: _77  and  _79
REMARK   28  A    between atoms: _79  and  _80
REMARK   29  A    between atoms: _83  and  _85
REMARK   30  A    between atoms: _85  and  _86
REMARK   31  A    between atoms: _85  and  _88
REMARK   32  A    between atoms: _88  and  _89
REMARK   33  A    between atoms: _94  and  _96
REMARK   34  A    between atoms: _96  and  _97
REMARK   35  A    between atoms: _96  and  _99
REMARK   36  A    between atoms: _99  and  _100
REMARK   37  A    between atoms: _100  and  _101
REMARK   38  A    between atoms: _104  and  _106
REMARK   39  A    between atoms: _106  and  _107
REMARK   40  A    between atoms: _106  and  _109
REMARK   41  A    between atoms: _109  and  _110
REMARK   42  A    between atoms: _113  and  _115
REMARK   43  A    between atoms: _115  and  _116
REMARK   44  A    between atoms: _115  and  _118
REMARK   45  A    between atoms: _118  and  _119
REMARK   46  A    between atoms: _119  and  _120
REMARK   47  A    between atoms: _125  and  _127
REMARK   48  A    between atoms: _127  and  _128
REMARK   49  A    between atoms: _127  and  _130
REMARK   50  A    between atoms: _130  and  _131
REMARK   51  A    between atoms: _137  and  _139
REMARK   52  A    between atoms: _150  and  _153
REMARK   53  A    between atoms: _153  and  _154
REMARK   54  A    between atoms: _162  and  _163
REMARK   55  A    between atoms: _171  and  _173
REMARK   56  A    between atoms: _173  and  _174
REMARK   57  A    between atoms: _173  and  _176
REMARK   58  A    between atoms: _176  and  _177
REMARK   59  A    between atoms: _177  and  _178
REMARK   60  A    between atoms: _181  and  _183
REMARK   61  A    between atoms: _183  and  _184
REMARK   62  A    between atoms: _183  and  _186
REMARK   63  A    between atoms: _186  and  _187
REMARK   64  A    between atoms: _192  and  _194
REMARK   65  A    between atoms: _194  and  _195
REMARK   66  A    between atoms: _194  and  _197
REMARK   67  A    between atoms: _197  and  _198
REMARK   68  A    between atoms: _198  and  _199
REMARK   69  A    between atoms: _202  and  _204
REMARK   70  A    between atoms: _204  and  _205
REMARK   71  A    between atoms: _204  and  _207
REMARK   72  A    between atoms: _207  and  _208
REMARK   73  A    between atoms: _211  and  _213
REMARK   74  A    between atoms: _213  and  _214
REMARK   75  A    between atoms: _213  and  _216
REMARK   76  A    between atoms: _216  and  _217
REMARK   77  A    between atoms: _218  and  ZN_450
REMARK   78  A    between atoms: _222  and  _224
REMARK   79  A    between atoms: _224  and  _225
REMARK   80  A    between atoms: _224  and  _227
REMARK   81  A    between atoms: _227  and  _228
REMARK   82  A    between atoms: _231  and  _233
REMARK   83  A    between atoms: _233  and  _234
REMARK   84  A    between atoms: _233  and  _236
REMARK   85  A    between atoms: _239  and  _241
REMARK   86  A    between atoms: _241  and  _242
REMARK   87  A    between atoms: _241  and  _244
REMARK   88  A    between atoms: _244  and  _245
REMARK   89  A    between atoms: _250  and  _252
REMARK   90  A    between atoms: _252  and  _253
REMARK   91  A    between atoms: _252  and  _255
REMARK   92  A    between atoms: _255  and  _256
REMARK   93  A    between atoms: _262  and  _264
REMARK   94  A    between atoms: _264  and  _265
REMARK   95  A    between atoms: _267  and  _269
REMARK   96  A    between atoms: _269  and  _270
REMARK   97  A    between atoms: _269  and  _272
REMARK   98  A    between atoms: _275  and  _277
REMARK   99  A    between atoms: _277  and  _278
REMARK  100  A    between atoms: _277  and  _280
REMARK  101  A    between atoms: _280  and  _281
REMARK  102  A    between atoms: _281  and  _282
REMARK  103  A    between atoms: _287  and  _289
REMARK  104  A    between atoms: _289  and  _290
REMARK  105  A    between atoms: _289  and  _292
REMARK  106  A    between atoms: _292  and  _293
REMARK  107  A    between atoms: _296  and  _298
REMARK  108  A    between atoms: _298  and  _299
REMARK  109  A    between atoms: _302  and  _304
REMARK  110  A    between atoms: _304  and  _305
REMARK  111  A    between atoms: _304  and  _307
REMARK  112  A    between atoms: _310  and  _312
REMARK  113  A    between atoms: _312  and  _313
REMARK  114  A    between atoms: _312  and  _315
REMARK  115  A    between atoms: _315  and  _316
REMARK  116  A    between atoms: _319  and  _321
REMARK  117  A    between atoms: _321  and  _322
REMARK  118  A    between atoms: _324  and  _326
REMARK  119  A    between atoms: _326  and  _327
REMARK  120  A    between atoms: _326  and  _329
REMARK  121  A    between atoms: _329  and  _330
REMARK  122  A    between atoms: _332  and  _334
REMARK  123  A    between atoms: _334  and  _335
REMARK  124  A    between atoms: _334  and  _337
REMARK  125  A    between atoms: _337  and  _338
REMARK  126  A    between atoms: _341  and  _343
REMARK  127  A    between atoms: _343  and  _344
REMARK  128  A    between atoms: _343  and  _346
REMARK  129  A    between atoms: _346  and  _347
REMARK  130  A    between atoms: _350  and  _352
REMARK  131  A    between atoms: _352  and  _353
REMARK  132  A    between atoms: _352  and  _355
REMARK  133  A    between atoms: _355  and  _356
REMARK  134  A    between atoms: _360  and  _361
REMARK  135  A    between atoms: _367  and  _368
REMARK  136  A    between atoms: _373  and  _375
REMARK  137  A    between atoms: _375  and  _376
REMARK  138  A    between atoms: _375  and  _378
REMARK  139  A    between atoms: _378  and  _379
REMARK  140  A    between atoms: _382  and  _384
REMARK  141  A    between atoms: _384  and  _385
REMARK  142  A    between atoms: _384  and  _387
REMARK  143  A    between atoms: _387  and  _388
REMARK  144  A    between atoms: _391  and  _393
REMARK  145  A    between atoms: _393  and  _394
REMARK  146  A    between atoms: _393  and  _396
REMARK  147  A    between atoms: _398  and  _400
REMARK  148  A    between atoms: _400  and  _401
REMARK  149  A    between atoms: _400  and  _403
REMARK  150  A    between atoms: _406  and  _408
REMARK  151  A    between atoms: _408  and  _409
REMARK  152  A    between atoms: _408  and  _411
REMARK  153  A    between atoms: _411  and  _412
REMARK  154  A    between atoms: _422  and  _424
REMARK  155  A    between atoms: _424  and  _425
REMARK  156  A    between atoms: _424  and  _427
REMARK  157  A    between atoms: _427  and  _428
REMARK  158  A    between atoms: _433  and  _435
REMARK  159  A    between atoms: _435  and  _436
REMARK  160  A    between atoms: _435  and  _438
REMARK  161  A    between atoms: _438  and  _439
REMARK  162  A    between atoms: _439  and  _440
REMARK  163  A    between atoms: _440  and  _441
REMARK                            x       y       z     vdW  Elec       q    Type
REMARK                         _______ _______ _______ _____ _____    ______ ____
ROOT
ATOM      1  CA  THR A   5       0.282   0.071  16.175  0.00  0.00    +0.176 C 
ENDROOT
BRANCH   1   2
ATOM      2  C   THR A   5       1.093   1.320  16.472  0.00  0.00    +0.246 C 
ATOM      3  O   THR A   5       0.600   2.276  17.079  0.00  0.00    -0.273 OA
ATOM      4  N   PRO A   6       2.343   1.332  16.018  0.00  0.00    -0.272 N 
ATOM      5  CA  PRO A   6       3.110   2.568  16.118  0.00  0.00    +0.152 C 
ATOM      6  CB  PRO A   6       4.330   2.233  15.259  0.00  0.00    +0.031 C 
ATOM      7  CG  PRO A   6       4.519   0.827  15.466  0.00  0.00    +0.024 C 
ATOM      8  CD  PRO A   6       3.141   0.251  15.416  0.00  0.00    +0.094 C 
BRANCH   5   9
ATOM      9  C   PRO A   6       2.262   3.728  15.567  0.00  0.00    +0.244 C 
ATOM     10  N   PRO A   7       2.271   4.892  16.225  0.00  0.00    -0.272 N 
ATOM     11  CA  PRO A   7       3.181   5.298  17.318  0.00  0.00    +0.152 C 
ATOM     12  CB  PRO A   7       3.172   6.820  17.198  0.00  0.00    +0.031 C 
ATOM     13  CG  PRO A   7       1.816   7.140  16.711  0.00  0.00    +0.024 C 
ATOM     14  CD  PRO A   7       1.463   6.040  15.743  0.00  0.00    +0.094 C 
ATOM     15  O   PRO A   6       1.583   3.550  14.542  0.00  0.00    -0.273 OA
BRANCH  11  16
ATOM     16  C   PRO A   7       2.818   4.885  18.747  0.00  0.00    +0.241 C 
ATOM     17  O   PRO A   7       3.438   5.389  19.667  0.00  0.00    -0.273 OA
ATOM     18  N   LEU A   8       1.806   4.036  18.907  0.00  0.00    -0.297 N 
ATOM     19  H   LEU A   8       1.195   3.819  18.094  0.00  0.00    +0.150 HD
BRANCH  18  20
ATOM     20  CA  LEU A   8       1.524   3.391  20.210  0.00  0.00    +0.149 C 
BRANCH  20  21
ATOM     21  C   LEU A   8       1.149   4.400  21.287  0.00  0.00    +0.241 C 
ATOM     22  O   LEU A   8       1.279   4.125  22.492  0.00  0.00    -0.273 OA
ATOM     23  N   LEU A   9       0.611   5.548  20.862  0.00  0.00    -0.298 N 
ATOM     24  H   LEU A   9       0.420   5.669  19.847  0.00  0.00    +0.150 HD
BRANCH  23  25
ATOM     25  CA  LEU A   9       0.283   6.637  21.777  0.00  0.00    +0.137 C 
BRANCH  25  26
ATOM     26  C   LEU A   9      -0.773   6.229  22.802  0.00  0.00    +0.227 C 
ATOM     27  O   LEU A   9      -1.773   5.570  22.481  0.00  0.00    -0.286 OA
ENDBRANCH  25  26
BRANCH  25  28
ATOM     28  CB  LEU A   9      -0.185   7.865  20.977  0.00  0.00    +0.028 C 
BRANCH  28  29
ATOM     29  CG  LEU A   9       0.922   8.456  20.080  0.00  0.00    +0.002 C 
ATOM     30  CD2 LEU A   9       2.067   9.091  20.878  0.00  0.00    +0.000 C 
ATOM     31  CD1 LEU A   9       0.304   9.483  19.146  0.00  0.00    +0.000 C 
ENDBRANCH  28  29
ENDBRANCH  25  28
ENDBRANCH  23  25
ENDBRANCH  20  21
BRANCH  20  32
ATOM     32  CB  LEU A   8       2.673   2.499  20.662  0.00  0.00    +0.029 C 
BRANCH  32  33
ATOM     33  CG  LEU A   8       2.990   1.314  19.718  0.00  0.00    +0.002 C 
ATOM     34  CD2 LEU A   8       4.294   0.667  20.161  0.00  0.00    +0.000 C 
ATOM     35  CD1 LEU A   8       1.894   0.255  19.680  0.00  0.00    +0.000 C 
ENDBRANCH  32  33
ENDBRANCH  20  32
ENDBRANCH  18  20
ENDBRANCH  11  16
ENDBRANCH   5   9
ENDBRANCH   1   2
BRANCH   1  38
ATOM     36  C   THR A   4      -1.041  -1.061  17.924  0.00  0.00    +0.243 C 
ATOM     37  O   THR A   4      -0.476  -2.125  17.801  0.00  0.00    -0.273 OA
ATOM     38  N   THR A   5      -0.843  -0.003  17.121  0.00  0.00    -0.295 N 
ATOM     39  H   THR A   5      -1.510   0.794  17.169  0.00  0.00    +0.150 HD
BRANCH  36  40
ATOM     40  CA  THR A   4      -2.036  -0.906  19.063  0.00  0.00    +0.176 C 
BRANCH  40  43
ATOM     41  C   LEU A   3      -2.226   1.347  19.868  0.00  0.00    +0.241 C 
ATOM     42  O   LEU A   3      -1.207   1.155  20.592  0.00  0.00    -0.273 OA
ATOM     43  N   THR A   4      -2.703   0.399  19.077  0.00  0.00    -0.295 N 
ATOM     44  H   THR A   4      -3.534   0.577  18.478  0.00  0.00    +0.150 HD
BRANCH  41  45
ATOM     45  CA  LEU A   3      -2.975   2.659  19.856  0.00  0.00    +0.149 C 
BRANCH  45  48
ATOM     46  C   SER A   2      -3.534   2.496  22.218  0.00  0.00    +0.243 C 
ATOM     47  O   SER A   2      -4.316   1.563  22.048  0.00  0.00    -0.273 OA
ATOM     48  N   LEU A   3      -3.001   3.202  21.218  0.00  0.00    -0.297 N 
ATOM     49  H   LEU A   3      -2.601   4.144  21.406  0.00  0.00    +0.150 HD
BRANCH  46  50
ATOM     50  CA  SER A   2      -3.090   2.903  23.628  0.00  0.00    +0.178 C 
BRANCH  50  53
ATOM     51  C   GLY A   1      -4.284   2.923  25.750  0.00  0.00    +0.240 C 
ATOM     52  O   GLY A   1      -4.174   4.124  25.884  0.00  0.00    -0.274 OA
ATOM     53  N   SER A   2      -3.890   2.265  24.674  0.00  0.00    -0.295 N 
ATOM     54  H   SER A   2      -4.156   1.265  24.568  0.00  0.00    +0.150 HD
BRANCH  51  55
ATOM     55  CA  GLY A   1      -4.852   2.073  26.849  0.00  0.00    +0.169 C 
BRANCH  55  56
ATOM     56  N   GLY A   1      -5.982   2.658  27.561  0.00  0.00    -0.236 NA
ATOM     57  H   GLY A   1      -6.604   3.337  27.077  0.00  0.00    +0.142 HD
ENDBRANCH  55  56
ENDBRANCH  51  55
ENDBRANCH  50  53
BRANCH  50  58
ATOM     58  CB  SER A   2      -1.623   2.489  23.821  0.00  0.00    +0.166 C 
BRANCH  58  59
ATOM     59  OG  SER A   2      -1.377   1.135  23.385  0.00  0.00    -0.380 OA
ATOM     60  H   SER A   2      -1.596   1.054  22.423  0.00  0.00    +0.211 HD
ENDBRANCH  58  59
ENDBRANCH  50  58
ENDBRANCH  46  50
ENDBRANCH  45  48
BRANCH  45  61
ATOM     61  CB  LEU A   3      -2.233   3.611  18.915  0.00  0.00    +0.029 C 
BRANCH  61  62
ATOM     62  CG  LEU A   3      -2.787   5.024  18.855  0.00  0.00    +0.002 C 
ATOM     63  CD2 LEU A   3      -4.252   5.081  18.443  0.00  0.00    +0.000 C 
ATOM     64  CD1 LEU A   3      -1.913   5.815  17.877  0.00  0.00    +0.000 C 
ENDBRANCH  61  62
ENDBRANCH  45  61
ENDBRANCH  41  45
ENDBRANCH  40  43
BRANCH  40  65
ATOM     65  CB  THR A   4      -3.002  -2.083  18.934  0.00  0.00    +0.137 C 
ATOM     66  CG2 THR A   4      -4.093  -2.068  20.029  0.00  0.00    +0.034 C 
BRANCH  65  67
ATOM     67  OG1 THR A   4      -3.599  -2.030  17.634  0.00  0.00    -0.382 OA
ATOM     68  HG1 THR A   4      -4.230  -2.786  17.531  0.00  0.00    +0.210 HD
ENDBRANCH  65  67
ENDBRANCH  40  65
ENDBRANCH  36  40
ENDBRANCH   1  38
BRANCH   1  69
ATOM     69  CB  THR A   5      -0.173   0.182  14.705  0.00  0.00    +0.137 C 
ATOM     70  CG2 THR A   5      -1.119  -0.932  14.324  0.00  0.00    +0.034 C 
BRANCH  69  71
ATOM     71  OG1 THR A   5      -0.832   1.412  14.507  0.00  0.00    -0.382 OA
ATOM     72  HG1 THR A   5      -0.212   2.155  14.718  0.00  0.00    +0.210 HD
ENDBRANCH  69  71
ENDBRANCH   1  69
TORSDOF 28
REMARK  Name = ../refined-set-2016/3oy0/3oy0_pocket.pdb
REMARK  163 active torsions:
REMARK  status: ('A' for Active; 'I' for Inactive)
REMARK    1  A    between atoms: _1  and  _3
REMARK    2  A    between atoms: _3  and  _4
REMARK    3  A    between atoms: _3  and  _6
REMARK    4  A    between atoms: _6  and  _7
REMARK    5  A    between atoms: _17  and  _19
REMARK    6  A    between atoms: _19  and  _20
REMARK    7  A    between atoms: _19  and  _22
REMARK    8  A    between atoms: _22  and  _23
REMARK    9  A    between atoms: _28  and  _29
REMARK   10  A    between atoms: _31  and  _33
REMARK   11  A    between atoms: _33  and  _34
REMARK   12  A    between atoms: _33  and  _36
REMARK   13  A    between atoms: _36  and  _37
REMARK   14  A    between atoms: _40  and  _41
REMARK   15  A    between atoms: _46  and  _48
REMARK   16  A    between atoms: _48  and  _49
REMARK   17  A    between atoms: _48  and  _51
REMARK   18  A    between atoms: _51  and  _52
REMARK   19  A    between atoms: _55  and  _57
REMARK   20  A    between atoms: _57  and  _58
REMARK   21  A    between atoms: _57  and  _60
REMARK   22  A    between atoms: _60  and  _61
REMARK   23  A    between atoms: _66  and  _68
REMARK   24  A    between atoms: _68  and  _69
REMARK   25  A    between atoms: _68  and  _71
REMARK   26  A    between atoms: _71  and  _72
REMARK   27  A    between atoms: _77  and  _79
REMARK   28  A    between atoms: _79  and  _80
REMARK   29  A    between atoms: _83  and  _85
REMARK   30  A    between atoms: _85  and  _86
REMARK   31  A    between atoms: _85  and  _88
REMARK   32  A    between atoms: _88  and  _89
REMARK   33  A    between atoms: _94  and  _96
REMARK   34  A    between atoms: _96  and  _97
REMARK   35  A    between atoms: _96  and  _99
REMARK   36  A    between atoms: _99  and  _100
REMARK   37  A    between atoms: _100  and  _101
REMARK   38  A    between atoms: _104  and  _106
REMARK   39  A    between atoms: _106  and  _107
REMARK   40  A    between atoms: _106  and  _109
REMARK   41  A    between atoms: _109  and  _110
REMARK   42  A    between atoms: _113  and  _115
REMARK   43  A    between atoms: _115  and  _116
REMARK   44  A    between atoms: _115  and  _118
REMARK   45  A    between atoms: _118  and  _119
REMARK   46  A    between atoms: _119  and  _120
REMARK   47  A    between atoms: _125  and  _127
REMARK   48  A    between atoms: _127  and  _128
REMARK   49  A    between atoms: _127  and  _130
REMARK   50  A    between atoms: _130  and  _131
REMARK   51  A    between atoms: _137  and  _139
REMARK   52  A    between atoms: _150  and  _153
REMARK   53  A    between atoms: _153  and  _154
REMARK   54  A    between atoms: _162  and  _163
REMARK   55  A    between atoms: _171  and  _173
REMARK   56  A    between atoms: _173  and  _174
REMARK   57  A    between atoms: _173  and  _176
REMARK   58  A    between atoms: _176  and  _177
REMARK   59  A    between atoms: _177  and  _178
REMARK   60  A    between atoms: _181  and  _183
REMARK   61  A    between atoms: _183  and  _184
REMARK   62  A    between atoms: _183  and  _186
REMARK   63  A    between atoms: _186  and  _187
REMARK   64  A    between atoms: _192  and  _194
REMARK   65  A    between atoms: _194  and  _195
REMARK   66  A    between atoms: _194  and  _197
REMARK   67  A    between atoms: _197  and  _198
REMARK   68  A    between atoms: _198  and  _199
REMARK   69  A    between atoms: _202  and  _204
REMARK   70  A    between atoms: _204  and  _205
REMARK   71  A    between atoms: _204  and  _207
REMARK   72  A    between atoms: _207  and  _208
REMARK   73  A    between atoms: _211  and  _213
REMARK   74  A    between atoms: _213  and  _214
REMARK   75  A    between atoms: _213  and  _216
REMARK   76  A    between atoms: _216  and  _217
REMARK   77  A    between atoms: _218  and  ZN_450
REMARK   78  A    between atoms: _222  and  _224
REMARK   79  A    between atoms: _224  and  _225
REMARK   80  A    between atoms: _224  and  _227
REMARK   81  A    between atoms: _227  and  _228
REMARK   82  A    between atoms: _231  and  _233
REMARK   83  A    between atoms: _233  and  _234
REMARK   84  A    between atoms: _233  and  _236
REMARK   85  A    between atoms: _239  and  _241
REMARK   86  A    between atoms: _241  and  _242
REMARK   87  A    between atoms: _241  and  _244
REMARK   88  A    between atoms: _244  and  _245
REMARK   89  A    between atoms: _250  and  _252
REMARK   90  A    between atoms: _252  and  _253
REMARK   91  A    between atoms: _252  and  _255
REMARK   92  A    between atoms: _255  and  _256
REMARK   93  A    between atoms: _262  and  _264
REMARK   94  A    between atoms: _264  and  _265
REMARK   95  A    between atoms: _267  and  _269
REMARK   96  A    between atoms: _269  and  _270
REMARK   97  A    between atoms: _269  and  _272
REMARK   98  A    between atoms: _275  and  _277
REMARK   99  A    between atoms: _277  and  _278
REMARK  100  A    between atoms: _277  and  _280
REMARK  101  A    between atoms: _280  and  _281
REMARK  102  A    between atoms: _281  and  _282
REMARK  103  A    between atoms: _287  and  _289
REMARK  104  A    between atoms: _289  and  _290
REMARK  105  A    between atoms: _289  and  _292
REMARK  106  A    between atoms: _292  and  _293
REMARK  107  A    between atoms: _296  and  _298
REMARK  108  A    between atoms: _298  and  _299
REMARK  109  A    between atoms: _302  and  _304
REMARK  110  A    between atoms: _304  and  _305
REMARK  111  A    between atoms: _304  and  _307
REMARK  112  A    between atoms: _310  and  _312
REMARK  113  A    between atoms: _312  and  _313
REMARK  114  A    between atoms: _312  and  _315
REMARK  115  A    between atoms: _315  and  _316
REMARK  116  A    between atoms: _319  and  _321
REMARK  117  A    between atoms: _321  and  _322
REMARK  118  A    between atoms: _324  and  _326
REMARK  119  A    between atoms: _326  and  _327
REMARK  120  A    between atoms: _326  and  _329
REMARK  121  A    between atoms: _329  and  _330
REMARK  122  A    between atoms: _332  and  _334
REMARK  123  A    between atoms: _334  and  _335
REMARK  124  A    between atoms: _334  and  _337
REMARK  125  A    between atoms: _337  and  _338
REMARK  126  A    between atoms: _341  and  _343
REMARK  127  A    between atoms: _343  and  _344
REMARK  128  A    between atoms: _343  and  _346
REMARK  129  A    between atoms: _346  and  _347
REMARK  130  A    between atoms: _350  and  _352
REMARK  131  A    between atoms: _352  and  _353
REMARK  132  A    between atoms: _352  and  _355
REMARK  133  A    between atoms: _355  and  _356
REMARK  134  A    between atoms: _360  and  _361
REMARK  135  A    between atoms: _367  and  _368
REMARK  136  A    between atoms: _373  and  _375
REMARK  137  A    between atoms: _375  and  _376
REMARK  138  A    between atoms: _375  and  _378
REMARK  139  A    between atoms: _378  and  _379
REMARK  140  A    between atoms: _382  and  _384
REMARK  141  A    between atoms: _384  and  _385
REMARK  142  A    between atoms: _384  and  _387
REMARK  143  A    between atoms: _387  and  _388
REMARK  144  A    between atoms: _391  and  _393
REMARK  145  A    between atoms: _393  and  _394
REMARK  146  A    between atoms: _393  and  _396
REMARK  147  A    between atoms: _398  and  _400
REMARK  148  A    between atoms: _400  and  _401
REMARK  149  A    between atoms: _400  and  _403
REMARK  150  A    between atoms: _406  and  _408
REMARK  151  A    between atoms: _408  and  _409
REMARK  152  A    between atoms: _408  and  _411
REMARK  153  A    between atoms: _411  and  _412
REMARK  154  A    between atoms: _422  and  _424
REMARK  155  A    between atoms: _424  and  _425
REMARK  156  A    between atoms: _424  and  _427
REMARK  157  A    between atoms: _427  and  _428
REMARK  158  A    between atoms: _433  and  _435
REMARK  159  A    between atoms: _435  and  _436
REMARK  160  A    between atoms: _435  and  _438
REMARK  161  A    between atoms: _438  and  _439
REMARK  162  A    between atoms: _439  and  _440
REMARK  163  A    between atoms: _440  and  _441
REMARK                            x       y       z     vdW  Elec       q    Type
REMARK                         _______ _______ _______ _____ _____    ______ ____
ROOT
ATOM      1  C   CYS A   1      -5.947   7.544  24.005  0.00  0.00    +0.239 C 
ATOM      2  N   VAL A   2      -6.069   6.238  24.279  0.00  0.00    -0.298 N 
ATOM      3  H   VAL A   2      -5.279   5.731  24.726  0.00  0.00    +0.150 HD
ATOM      4  O   CYS A   1      -6.894   8.262  23.708  0.00  0.00    -0.274 OA
ENDROOT
BRANCH   1   5
ATOM      5  CA  CYS A   1      -4.566   8.156  24.112  0.00  0.00    +0.156 C 
BRANCH   5   6
ATOM      6  N   CYS A   1      -3.495   7.176  24.291  0.00  0.00    -0.237 NA
ATOM      7  H   CYS A   1      -3.410   6.400  23.604  0.00  0.00    +0.142 HD
ENDBRANCH   5   6
BRANCH   5   8
ATOM      8  CB  CYS A   1      -4.309   8.997  22.864  0.00  0.00    +0.095 C 
ATOM      9  SG  CYS A   1      -4.231   8.030  21.315  0.00  0.00    -0.080 S 
ENDBRANCH   5   8
ENDBRANCH   1   5
BRANCH   2  10
ATOM     10  CA  VAL A   2      -7.310   5.511  23.954  0.00  0.00    +0.137 C 
BRANCH  10  11
ATOM     11  CB  VAL A   2      -7.043   4.259  23.081  0.00  0.00    +0.026 C 
ATOM     12  CG2 VAL A   2      -8.352   3.555  22.747  0.00  0.00    +0.002 C 
ATOM     13  CG1 VAL A   2      -6.263   4.631  21.757  0.00  0.00    +0.002 C 
ENDBRANCH  10  11
BRANCH  10  14
ATOM     14  C   VAL A   2      -8.065   5.051  25.175  0.00  0.00    +0.227 C 
ATOM     15  O   VAL A   2      -7.518   4.378  26.039  0.00  0.00    -0.286 OA
ENDBRANCH  10  14
ENDBRANCH   2  10
TORSDOF 6
REMARK  Name = ../refined-set-2016/3oy0/3oy0_pocket.pdb
REMARK  163 active torsions:
REMARK  status: ('A' for Active; 'I' for Inactive)
REMARK    1  A    between atoms: _1  and  _3
REMARK    2  A    between atoms: _3  and  _4
REMARK    3  A    between atoms: _3  and  _6
REMARK    4  A    between atoms: _6  and  _7
REMARK    5  A    between atoms: _17  and  _19
REMARK    6  A    between atoms: _19  and  _20
REMARK    7  A    between atoms: _19  and  _22
REMARK    8  A    between atoms: _22  and  _23
REMARK    9  A    between atoms: _28  and  _29
REMARK   10  A    between atoms: _31  and  _33
REMARK   11  A    between atoms: _33  and  _34
REMARK   12  A    between atoms: _33  and  _36
REMARK   13  A    between atoms: _36  and  _37
REMARK   14  A    between atoms: _40  and  _41
REMARK   15  A    between atoms: _46  and  _48
REMARK   16  A    between atoms: _48  and  _49
REMARK   17  A    between atoms: _48  and  _51
REMARK   18  A    between atoms: _51  and  _52
REMARK   19  A    between atoms: _55  and  _57
REMARK   20  A    between atoms: _57  and  _58
REMARK   21  A    between atoms: _57  and  _60
REMARK   22  A    between atoms: _60  and  _61
REMARK   23  A    between atoms: _66  and  _68
REMARK   24  A    between atoms: _68  and  _69
REMARK   25  A    between atoms: _68  and  _71
REMARK   26  A    between atoms: _71  and  _72
REMARK   27  A    between atoms: _77  and  _79
REMARK   28  A    between atoms: _79  and  _80
REMARK   29  A    between atoms: _83  and  _85
REMARK   30  A    between atoms: _85  and  _86
REMARK   31  A    between atoms: _85  and  _88
REMARK   32  A    between atoms: _88  and  _89
REMARK   33  A    between atoms: _94  and  _96
REMARK   34  A    between atoms: _96  and  _97
REMARK   35  A    between atoms: _96  and  _99
REMARK   36  A    between atoms: _99  and  _100
REMARK   37  A    between atoms: _100  and  _101
REMARK   38  A    between atoms: _104  and  _106
REMARK   39  A    between atoms: _106  and  _107
REMARK   40  A    between atoms: _106  and  _109
REMARK   41  A    between atoms: _109  and  _110
REMARK   42  A    between atoms: _113  and  _115
REMARK   43  A    between atoms: _115  and  _116
REMARK   44  A    between atoms: _115  and  _118
REMARK   45  A    between atoms: _118  and  _119
REMARK   46  A    between atoms: _119  and  _120
REMARK   47  A    between atoms: _125  and  _127
REMARK   48  A    between atoms: _127  and  _128
REMARK   49  A    between atoms: _127  and  _130
REMARK   50  A    between atoms: _130  and  _131
REMARK   51  A    between atoms: _137  and  _139
REMARK   52  A    between atoms: _150  and  _153
REMARK   53  A    between atoms: _153  and  _154
REMARK   54  A    between atoms: _162  and  _163
REMARK   55  A    between atoms: _171  and  _173
REMARK   56  A    between atoms: _173  and  _174
REMARK   57  A    between atoms: _173  and  _176
REMARK   58  A    between atoms: _176  and  _177
REMARK   59  A    between atoms: _177  and  _178
REMARK   60  A    between atoms: _181  and  _183
REMARK   61  A    between atoms: _183  and  _184
REMARK   62  A    between atoms: _183  and  _186
REMARK   63  A    between atoms: _186  and  _187
REMARK   64  A    between atoms: _192  and  _194
REMARK   65  A    between atoms: _194  and  _195
REMARK   66  A    between atoms: _194  and  _197
REMARK   67  A    between atoms: _197  and  _198
REMARK   68  A    between atoms: _198  and  _199
REMARK   69  A    between atoms: _202  and  _204
REMARK   70  A    between atoms: _204  and  _205
REMARK   71  A    between atoms: _204  and  _207
REMARK   72  A    between atoms: _207  and  _208
REMARK   73  A    between atoms: _211  and  _213
REMARK   74  A    between atoms: _213  and  _214
REMARK   75  A    between atoms: _213  and  _216
REMARK   76  A    between atoms: _216  and  _217
REMARK   77  A    between atoms: _218  and  ZN_450
REMARK   78  A    between atoms: _222  and  _224
REMARK   79  A    between atoms: _224  and  _225
REMARK   80  A    between atoms: _224  and  _227
REMARK   81  A    between atoms: _227  and  _228
REMARK   82  A    between atoms: _231  and  _233
REMARK   83  A    between atoms: _233  and  _234
REMARK   84  A    between atoms: _233  and  _236
REMARK   85  A    between atoms: _239  and  _241
REMARK   86  A    between atoms: _241  and  _242
REMARK   87  A    between atoms: _241  and  _244
REMARK   88  A    between atoms: _244  and  _245
REMARK   89  A    between atoms: _250  and  _252
REMARK   90  A    between atoms: _252  and  _253
REMARK   91  A    between atoms: _252  and  _255
REMARK   92  A    between atoms: _255  and  _256
REMARK   93  A    between atoms: _262  and  _264
REMARK   94  A    between atoms: _264  and  _265
REMARK   95  A    between atoms: _267  and  _269
REMARK   96  A    between atoms: _269  and  _270
REMARK   97  A    between atoms: _269  and  _272
REMARK   98  A    between atoms: _275  and  _277
REMARK   99  A    between atoms: _277  and  _278
REMARK  100  A    between atoms: _277  and  _280
REMARK  101  A    between atoms: _280  and  _281
REMARK  102  A    between atoms: _281  and  _282
REMARK  103  A    between atoms: _287  and  _289
REMARK  104  A    between atoms: _289  and  _290
REMARK  105  A    between atoms: _289  and  _292
REMARK  106  A    between atoms: _292  and  _293
REMARK  107  A    between atoms: _296  and  _298
REMARK  108  A    between atoms: _298  and  _299
REMARK  109  A    between atoms: _302  and  _304
REMARK  110  A    between atoms: _304  and  _305
REMARK  111  A    between atoms: _304  and  _307
REMARK  112  A    between atoms: _310  and  _312
REMARK  113  A    between atoms: _312  and  _313
REMARK  114  A    between atoms: _312  and  _315
REMARK  115  A    between atoms: _315  and  _316
REMARK  116  A    between atoms: _319  and  _321
REMARK  117  A    between atoms: _321  and  _322
REMARK  118  A    between atoms: _324  and  _326
REMARK  119  A    between atoms: _326  and  _327
REMARK  120  A    between atoms: _326  and  _329
REMARK  121  A    between atoms: _329  and  _330
REMARK  122  A    between atoms: _332  and  _334
REMARK  123  A    between atoms: _334  and  _335
REMARK  124  A    between atoms: _334  and  _337
REMARK  125  A    between atoms: _337  and  _338
REMARK  126  A    between atoms: _341  and  _343
REMARK  127  A    between atoms: _343  and  _344
REMARK  128  A    between atoms: _343  and  _346
REMARK  129  A    between atoms: _346  and  _347
REMARK  130  A    between atoms: _350  and  _352
REMARK  131  A    between atoms: _352  and  _353
REMARK  132  A    between atoms: _352  and  _355
REMARK  133  A    between atoms: _355  and  _356
REMARK  134  A    between atoms: _360  and  _361
REMARK  135  A    between atoms: _367  and  _368
REMARK  136  A    between atoms: _373  and  _375
REMARK  137  A    between atoms: _375  and  _376
REMARK  138  A    between atoms: _375  and  _378
REMARK  139  A    between atoms: _378  and  _379
REMARK  140  A    between atoms: _382  and  _384
REMARK  141  A    between atoms: _384  and  _385
REMARK  142  A    between atoms: _384  and  _387
REMARK  143  A    between atoms: _387  and  _388
REMARK  144  A    between atoms: _391  and  _393
REMARK  145  A    between atoms: _393  and  _394
REMARK  146  A    between atoms: _393  and  _396
REMARK  147  A    between atoms: _398  and  _400
REMARK  148  A    between atoms: _400  and  _401
REMARK  149  A    between atoms: _400  and  _403
REMARK  150  A    between atoms: _406  and  _408
REMARK  151  A    between atoms: _408  and  _409
REMARK  152  A    between atoms: _408  and  _411
REMARK  153  A    between atoms: _411  and  _412
REMARK  154  A    between atoms: _422  and  _424
REMARK  155  A    between atoms: _424  and  _425
REMARK  156  A    between atoms: _424  and  _427
REMARK  157  A    between atoms: _427  and  _428
REMARK  158  A    between atoms: _433  and  _435
REMARK  159  A    between atoms: _435  and  _436
REMARK  160  A    between atoms: _435  and  _438
REMARK  161  A    between atoms: _438  and  _439
REMARK  162  A    between atoms: _439  and  _440
REMARK  163  A    between atoms: _440  and  _441
REMARK                            x       y       z     vdW  Elec       q    Type
REMARK                         _______ _______ _______ _____ _____    ______ ____
ROOT
ATOM      1  CG  TRP A   1      -8.797   0.087  24.195  0.00  0.00    -0.002 A 
ATOM      2  CD1 TRP A   1      -7.593   0.652  24.389  0.00  0.00    +0.068 A 
ATOM      3  NE1 TRP A   1      -6.888   0.661  23.189  0.00  0.00    -0.352 N 
ATOM      4  HE1 TRP A   1      -5.945   1.077  23.049  0.00  0.00    +0.166 HD
ATOM      5  CE2 TRP A   1      -7.629   0.036  22.222  0.00  0.00    +0.056 A 
ATOM      6  CZ2 TRP A   1      -7.342  -0.232  20.882  0.00  0.00    +0.017 A 
ATOM      7  CH2 TRP A   1      -8.311  -0.868  20.144  0.00  0.00    +0.001 A 
ATOM      8  CZ3 TRP A   1      -9.534  -1.248  20.703  0.00  0.00    +0.000 A 
ATOM      9  CE3 TRP A   1      -9.818  -0.968  22.028  0.00  0.00    +0.001 A 
ATOM     10  CD2 TRP A   1      -8.851  -0.325  22.812  0.00  0.00    +0.013 A 
ENDROOT
BRANCH   1  11
ATOM     11  CB  TRP A   1      -9.861  -0.051  25.176  0.00  0.00    +0.053 C 
BRANCH  11  12
ATOM     12  CA  TRP A   1     -10.886   1.096  24.990  0.00  0.00    +0.137 C 
BRANCH  12  13
ATOM     13  N   TRP A   1     -10.470   2.295  25.702  0.00  0.00    -0.239 NA
ATOM     14  H   TRP A   1      -9.891   2.202  26.561  0.00  0.00    +0.142 HD
ENDBRANCH  12  13
BRANCH  12  15
ATOM     15  C   TRP A   1     -12.245   0.678  25.511  0.00  0.00    +0.224 C 
ATOM     16  O   TRP A   1     -12.460   0.597  26.709  0.00  0.00    -0.287 OA
ENDBRANCH  12  15
ENDBRANCH  11  12
ENDBRANCH   1  11
TORSDOF 4
REMARK  Name = ../refined-set-2016/3oy0/3oy0_pocket.pdb
REMARK  163 active torsions:
REMARK  status: ('A' for Active; 'I' for Inactive)
REMARK    1  A    between atoms: _1  and  _3
REMARK    2  A    between atoms: _3  and  _4
REMARK    3  A    between atoms: _3  and  _6
REMARK    4  A    between atoms: _6  and  _7
REMARK    5  A    between atoms: _17  and  _19
REMARK    6  A    between atoms: _19  and  _20
REMARK    7  A    between atoms: _19  and  _22
REMARK    8  A    between atoms: _22  and  _23
REMARK    9  A    between atoms: _28  and  _29
REMARK   10  A    between atoms: _31  and  _33
REMARK   11  A    between atoms: _33  and  _34
REMARK   12  A    between atoms: _33  and  _36
REMARK   13  A    between atoms: _36  and  _37
REMARK   14  A    between atoms: _40  and  _41
REMARK   15  A    between atoms: _46  and  _48
REMARK   16  A    between atoms: _48  and  _49
REMARK   17  A    between atoms: _48  and  _51
REMARK   18  A    between atoms: _51  and  _52
REMARK   19  A    between atoms: _55  and  _57
REMARK   20  A    between atoms: _57  and  _58
REMARK   21  A    between atoms: _57  and  _60
REMARK   22  A    between atoms: _60  and  _61
REMARK   23  A    between atoms: _66  and  _68
REMARK   24  A    between atoms: _68  and  _69
REMARK   25  A    between atoms: _68  and  _71
REMARK   26  A    between atoms: _71  and  _72
REMARK   27  A    between atoms: _77  and  _79
REMARK   28  A    between atoms: _79  and  _80
REMARK   29  A    between atoms: _83  and  _85
REMARK   30  A    between atoms: _85  and  _86
REMARK   31  A    between atoms: _85  and  _88
REMARK   32  A    between atoms: _88  and  _89
REMARK   33  A    between atoms: _94  and  _96
REMARK   34  A    between atoms: _96  and  _97
REMARK   35  A    between atoms: _96  and  _99
REMARK   36  A    between atoms: _99  and  _100
REMARK   37  A    between atoms: _100  and  _101
REMARK   38  A    between atoms: _104  and  _106
REMARK   39  A    between atoms: _106  and  _107
REMARK   40  A    between atoms: _106  and  _109
REMARK   41  A    between atoms: _109  and  _110
REMARK   42  A    between atoms: _113  and  _115
REMARK   43  A    between atoms: _115  and  _116
REMARK   44  A    between atoms: _115  and  _118
REMARK   45  A    between atoms: _118  and  _119
REMARK   46  A    between atoms: _119  and  _120
REMARK   47  A    between atoms: _125  and  _127
REMARK   48  A    between atoms: _127  and  _128
REMARK   49  A    between atoms: _127  and  _130
REMARK   50  A    between atoms: _130  and  _131
REMARK   51  A    between atoms: _137  and  _139
REMARK   52  A    between atoms: _150  and  _153
REMARK   53  A    between atoms: _153  and  _154
REMARK   54  A    between atoms: _162  and  _163
REMARK   55  A    between atoms: _171  and  _173
REMARK   56  A    between atoms: _173  and  _174
REMARK   57  A    between atoms: _173  and  _176
REMARK   58  A    between atoms: _176  and  _177
REMARK   59  A    between atoms: _177  and  _178
REMARK   60  A    between atoms: _181  and  _183
REMARK   61  A    between atoms: _183  and  _184
REMARK   62  A    between atoms: _183  and  _186
REMARK   63  A    between atoms: _186  and  _187
REMARK   64  A    between atoms: _192  and  _194
REMARK   65  A    between atoms: _194  and  _195
REMARK   66  A    between atoms: _194  and  _197
REMARK   67  A    between atoms: _197  and  _198
REMARK   68  A    between atoms: _198  and  _199
REMARK   69  A    between atoms: _202  and  _204
REMARK   70  A    between atoms: _204  and  _205
REMARK   71  A    between atoms: _204  and  _207
REMARK   72  A    between atoms: _207  and  _208
REMARK   73  A    between atoms: _211  and  _213
REMARK   74  A    between atoms: _213  and  _214
REMARK   75  A    between atoms: _213  and  _216
REMARK   76  A    between atoms: _216  and  _217
REMARK   77  A    between atoms: _218  and  ZN_450
REMARK   78  A    between atoms: _222  and  _224
REMARK   79  A    between atoms: _224  and  _225
REMARK   80  A    between atoms: _224  and  _227
REMARK   81  A    between atoms: _227  and  _228
REMARK   82  A    between atoms: _231  and  _233
REMARK   83  A    between atoms: _233  and  _234
REMARK   84  A    between atoms: _233  and  _236
REMARK   85  A    between atoms: _239  and  _241
REMARK   86  A    between atoms: _241  and  _242
REMARK   87  A    between atoms: _241  and  _244
REMARK   88  A    between atoms: _244  and  _245
REMARK   89  A    between atoms: _250  and  _252
REMARK   90  A    between atoms: _252  and  _253
REMARK   91  A    between atoms: _252  and  _255
REMARK   92  A    between atoms: _255  and  _256
REMARK   93  A    between atoms: _262  and  _264
REMARK   94  A    between atoms: _264  and  _265
REMARK   95  A    between atoms: _267  and  _269
REMARK   96  A    between atoms: _269  and  _270
REMARK   97  A    between atoms: _269  and  _272
REMARK   98  A    between atoms: _275  and  _277
REMARK   99  A    between atoms: _277  and  _278
REMARK  100  A    between atoms: _277  and  _280
REMARK  101  A    between atoms: _280  and  _281
REMARK  102  A    between atoms: _281  and  _282
REMARK  103  A    between atoms: _287  and  _289
REMARK  104  A    between atoms: _289  and  _290
REMARK  105  A    between atoms: _289  and  _292
REMARK  106  A    between atoms: _292  and  _293
REMARK  107  A    between atoms: _296  and  _298
REMARK  108  A    between atoms: _298  and  _299
REMARK  109  A    between atoms: _302  and  _304
REMARK  110  A    between atoms: _304  and  _305
REMARK  111  A    between atoms: _304  and  _307
REMARK  112  A    between atoms: _310  and  _312
REMARK  113  A    between atoms: _312  and  _313
REMARK  114  A    between atoms: _312  and  _315
REMARK  115  A    between atoms: _315  and  _316
REMARK  116  A    between atoms: _319  and  _321
REMARK  117  A    between atoms: _321  and  _322
REMARK  118  A    between atoms: _324  and  _326
REMARK  119  A    between atoms: _326  and  _327
REMARK  120  A    between atoms: _326  and  _329
REMARK  121  A    between atoms: _329  and  _330
REMARK  122  A    between atoms: _332  and  _334
REMARK  123  A    between atoms: _334  and  _335
REMARK  124  A    between atoms: _334  and  _337
REMARK  125  A    between atoms: _337  and  _338
REMARK  126  A    between atoms: _341  and  _343
REMARK  127  A    between atoms: _343  and  _344
REMARK  128  A    between atoms: _343  and  _346
REMARK  129  A    between atoms: _346  and  _347
REMARK  130  A    between atoms: _350  and  _352
REMARK  131  A    between atoms: _352  and  _353
REMARK  132  A    between atoms: _352  and  _355
REMARK  133  A    between atoms: _355  and  _356
REMARK  134  A    between atoms: _360  and  _361
REMARK  135  A    between atoms: _367  and  _368
REMARK  136  A    between atoms: _373  and  _375
REMARK  137  A    between atoms: _375  and  _376
REMARK  138  A    between atoms: _375  and  _378
REMARK  139  A    between atoms: _378  and  _379
REMARK  140  A    between atoms: _382  and  _384
REMARK  141  A    between atoms: _384  and  _385
REMARK  142  A    between atoms: _384  and  _387
REMARK  143  A    between atoms: _387  and  _388
REMARK  144  A    between atoms: _391  and  _393
REMARK  145  A    between atoms: _393  and  _394
REMARK  146  A    between atoms: _393  and  _396
REMARK  147  A    between atoms: _398  and  _400
REMARK  148  A    between atoms: _400  and  _401
REMARK  149  A    between atoms: _400  and  _403
REMARK  150  A    between atoms: _406  and  _408
REMARK  151  A    between atoms: _408  and  _409
REMARK  152  A    between atoms: _408  and  _411
REMARK  153  A    between atoms: _411  and  _412
REMARK  154  A    between atoms: _422  and  _424
REMARK  155  A    between atoms: _424  and  _425
REMARK  156  A    between atoms: _424  and  _427
REMARK  157  A    between atoms: _427  and  _428
REMARK  158  A    between atoms: _433  and  _435
REMARK  159  A    between atoms: _435  and  _436
REMARK  160  A    between atoms: _435  and  _438
REMARK  161  A    between atoms: _438  and  _439
REMARK  162  A    between atoms: _439  and  _440
REMARK  163  A    between atoms: _440  and  _441
REMARK                            x       y       z     vdW  Elec       q    Type
REMARK                         _______ _______ _______ _____ _____    ______ ____
ROOT
ATOM      1  CB  ASN A   1      -2.006  -7.134  10.373  0.00  0.00    +0.000 C 
ENDROOT
BRANCH   1   2
ATOM      2  CG  ASN A   1      -3.509  -7.312  10.172  0.00  0.00    +0.000 C 
ATOM      3  OD1 ASN A   1      -4.122  -8.227  10.725  0.00  0.00    +0.000 OA
ATOM      4  ND2 ASN A   1      -4.105  -6.428   9.368  0.00  0.00    +0.000 N 
ATOM      5 HD21 ASN A   1      -5.127  -6.496   9.187  0.00  0.00    +0.000 HD
ATOM      6 HD22 ASN A   1      -3.547  -5.672   8.922  0.00  0.00    +0.000 HD
ENDBRANCH   1   2
BRANCH   1   7
ATOM      7  CA  ASN A   1      -1.456  -8.005  11.513  0.00  0.00    +0.000 C 
BRANCH   7   8
ATOM      8  N   ASN A   1      -1.750  -9.404  11.262  0.00  0.00    +0.000 NA
ATOM      9  H   ASN A   1      -2.674  -9.661  10.859  0.00  0.00    +0.000 HD
ENDBRANCH   7   8
BRANCH   7  10
ATOM     10  C   ASN A   1      -1.995  -7.568  12.870  0.00  0.00    +0.000 C 
ATOM     11  O   ASN A   1      -2.643  -6.526  12.980  0.00  0.00    +0.000 OA
ENDBRANCH   7  10
ENDBRANCH   1   7
TORSDOF 4
REMARK  Name = ../refined-set-2016/3oy0/3oy0_pocket.pdb
REMARK  163 active torsions:
REMARK  status: ('A' for Active; 'I' for Inactive)
REMARK    1  A    between atoms: _1  and  _3
REMARK    2  A    between atoms: _3  and  _4
REMARK    3  A    between atoms: _3  and  _6
REMARK    4  A    between atoms: _6  and  _7
REMARK    5  A    between atoms: _17  and  _19
REMARK    6  A    between atoms: _19  and  _20
REMARK    7  A    between atoms: _19  and  _22
REMARK    8  A    between atoms: _22  and  _23
REMARK    9  A    between atoms: _28  and  _29
REMARK   10  A    between atoms: _31  and  _33
REMARK   11  A    between atoms: _33  and  _34
REMARK   12  A    between atoms: _33  and  _36
REMARK   13  A    between atoms: _36  and  _37
REMARK   14  A    between atoms: _40  and  _41
REMARK   15  A    between atoms: _46  and  _48
REMARK   16  A    between atoms: _48  and  _49
REMARK   17  A    between atoms: _48  and  _51
REMARK   18  A    between atoms: _51  and  _52
REMARK   19  A    between atoms: _55  and  _57
REMARK   20  A    between atoms: _57  and  _58
REMARK   21  A    between atoms: _57  and  _60
REMARK   22  A    between atoms: _60  and  _61
REMARK   23  A    between atoms: _66  and  _68
REMARK   24  A    between atoms: _68  and  _69
REMARK   25  A    between atoms: _68  and  _71
REMARK   26  A    between atoms: _71  and  _72
REMARK   27  A    between atoms: _77  and  _79
REMARK   28  A    between atoms: _79  and  _80
REMARK   29  A    between atoms: _83  and  _85
REMARK   30  A    between atoms: _85  and  _86
REMARK   31  A    between atoms: _85  and  _88
REMARK   32  A    between atoms: _88  and  _89
REMARK   33  A    between atoms: _94  and  _96
REMARK   34  A    between atoms: _96  and  _97
REMARK   35  A    between atoms: _96  and  _99
REMARK   36  A    between atoms: _99  and  _100
REMARK   37  A    between atoms: _100  and  _101
REMARK   38  A    between atoms: _104  and  _106
REMARK   39  A    between atoms: _106  and  _107
REMARK   40  A    between atoms: _106  and  _109
REMARK   41  A    between atoms: _109  and  _110
REMARK   42  A    between atoms: _113  and  _115
REMARK   43  A    between atoms: _115  and  _116
REMARK   44  A    between atoms: _115  and  _118
REMARK   45  A    between atoms: _118  and  _119
REMARK   46  A    between atoms: _119  and  _120
REMARK   47  A    between atoms: _125  and  _127
REMARK   48  A    between atoms: _127  and  _128
REMARK   49  A    between atoms: _127  and  _130
REMARK   50  A    between atoms: _130  and  _131
REMARK   51  A    between atoms: _137  and  _139
REMARK   52  A    between atoms: _150  and  _153
REMARK   53  A    between atoms: _153  and  _154
REMARK   54  A    between atoms: _162  and  _163
REMARK   55  A    between atoms: _171  and  _173
REMARK   56  A    between atoms: _173  and  _174
REMARK   57  A    between atoms: _173  and  _176
REMARK   58  A    between atoms: _176  and  _177
REMARK   59  A    between atoms: _177  and  _178
REMARK   60  A    between atoms: _181  and  _183
REMARK   61  A    between atoms: _183  and  _184
REMARK   62  A    between atoms: _183  and  _186
REMARK   63  A    between atoms: _186  and  _187
REMARK   64  A    between atoms: _192  and  _194
REMARK   65  A    between atoms: _194  and  _195
REMARK   66  A    between atoms: _194  and  _197
REMARK   67  A    between atoms: _197  and  _198
REMARK   68  A    between atoms: _198  and  _199
REMARK   69  A    between atoms: _202  and  _204
REMARK   70  A    between atoms: _204  and  _205
REMARK   71  A    between atoms: _204  and  _207
REMARK   72  A    between atoms: _207  and  _208
REMARK   73  A    between atoms: _211  and  _213
REMARK   74  A    between atoms: _213  and  _214
REMARK   75  A    between atoms: _213  and  _216
REMARK   76  A    between atoms: _216  and  _217
REMARK   77  A    between atoms: _218  and  ZN_450
REMARK   78  A    between atoms: _222  and  _224
REMARK   79  A    between atoms: _224  and  _225
REMARK   80  A    between atoms: _224  and  _227
REMARK   81  A    between atoms: _227  and  _228
REMARK   82  A    between atoms: _231  and  _233
REMARK   83  A    between atoms: _233  and  _234
REMARK   84  A    between atoms: _233  and  _236
REMARK   85  A    between atoms: _239  and  _241
REMARK   86  A    between atoms: _241  and  _242
REMARK   87  A    between atoms: _241  and  _244
REMARK   88  A    between atoms: _244  and  _245
REMARK   89  A    between atoms: _250  and  _252
REMARK   90  A    between atoms: _252  and  _253
REMARK   91  A    between atoms: _252  and  _255
REMARK   92  A    between atoms: _255  and  _256
REMARK   93  A    between atoms: _262  and  _264
REMARK   94  A    between atoms: _264  and  _265
REMARK   95  A    between atoms: _267  and  _269
REMARK   96  A    between atoms: _269  and  _270
REMARK   97  A    between atoms: _269  and  _272
REMARK   98  A    between atoms: _275  and  _277
REMARK   99  A    between atoms: _277  and  _278
REMARK  100  A    between atoms: _277  and  _280
REMARK  101  A    between atoms: _280  and  _281
REMARK  102  A    between atoms: _281  and  _282
REMARK  103  A    between atoms: _287  and  _289
REMARK  104  A    between atoms: _289  and  _290
REMARK  105  A    between atoms: _289  and  _292
REMARK  106  A    between atoms: _292  and  _293
REMARK  107  A    between atoms: _296  and  _298
REMARK  108  A    between atoms: _298  and  _299
REMARK  109  A    between atoms: _302  and  _304
REMARK  110  A    between atoms: _304  and  _305
REMARK  111  A    between atoms: _304  and  _307
REMARK  112  A    between atoms: _310  and  _312
REMARK  113  A    between atoms: _312  and  _313
REMARK  114  A    between atoms: _312  and  _315
REMARK  115  A    between atoms: _315  and  _316
REMARK  116  A    between atoms: _319  and  _321
REMARK  117  A    between atoms: _321  and  _322
REMARK  118  A    between atoms: _324  and  _326
REMARK  119  A    between atoms: _326  and  _327
REMARK  120  A    between atoms: _326  and  _329
REMARK  121  A    between atoms: _329  and  _330
REMARK  122  A    between atoms: _332  and  _334
REMARK  123  A    between atoms: _334  and  _335
REMARK  124  A    between atoms: _334  and  _337
REMARK  125  A    between atoms: _337  and  _338
REMARK  126  A    between atoms: _341  and  _343
REMARK  127  A    between atoms: _343  and  _344
REMARK  128  A    between atoms: _343  and  _346
REMARK  129  A    between atoms: _346  and  _347
REMARK  130  A    between atoms: _350  and  _352
REMARK  131  A    between atoms: _352  and  _353
REMARK  132  A    between atoms: _352  and  _355
REMARK  133  A    between atoms: _355  and  _356
REMARK  134  A    between atoms: _360  and  _361
REMARK  135  A    between atoms: _367  and  _368
REMARK  136  A    between atoms: _373  and  _375
REMARK  137  A    between atoms: _375  and  _376
REMARK  138  A    between atoms: _375  and  _378
REMARK  139  A    between atoms: _378  and  _379
REMARK  140  A    between atoms: _382  and  _384
REMARK  141  A    between atoms: _384  and  _385
REMARK  142  A    between atoms: _384  and  _387
REMARK  143  A    between atoms: _387  and  _388
REMARK  144  A    between atoms: _391  and  _393
REMARK  145  A    between atoms: _393  and  _394
REMARK  146  A    between atoms: _393  and  _396
REMARK  147  A    between atoms: _398  and  _400
REMARK  148  A    between atoms: _400  and  _401
REMARK  149  A    between atoms: _400  and  _403
REMARK  150  A    between atoms: _406  and  _408
REMARK  151  A    between atoms: _408  and  _409
REMARK  152  A    between atoms: _408  and  _411
REMARK  153  A    between atoms: _411  and  _412
REMARK  154  A    between atoms: _422  and  _424
REMARK  155  A    between atoms: _424  and  _425
REMARK  156  A    between atoms: _424  and  _427
REMARK  157  A    between atoms: _427  and  _428
REMARK  158  A    between atoms: _433  and  _435
REMARK  159  A    between atoms: _435  and  _436
REMARK  160  A    between atoms: _435  and  _438
REMARK  161  A    between atoms: _438  and  _439
REMARK  162  A    between atoms: _439  and  _440
REMARK  163  A    between atoms: _440  and  _441
REMARK                            x       y       z     vdW  Elec       q    Type
REMARK                         _______ _______ _______ _____ _____    ______ ____
ROOT
ATOM      1  NE  ARG A   1       2.211  -3.768  21.202  0.00  0.00    +0.330 N 
ATOM      2  CZ  ARG A   1       2.421  -2.767  22.068  0.00  0.00    +0.000 C 
ATOM      3  NH2 ARG A   1       3.633  -2.569  22.565  0.00  0.00    +0.330 N 
ATOM      4 HH21 ARG A   1       3.799  -1.793  23.237  0.00  0.00    +0.000 HD
ATOM      5 HH22 ARG A   1       4.418  -3.190  22.283  0.00  0.00    +0.000 HD
ATOM      6  NH1 ARG A   1       1.430  -1.954  22.438  0.00  0.00    +0.330 N 
ATOM      7 HH11 ARG A   1       1.614  -1.183  23.111  0.00  0.00    +0.000 HD
ATOM      8 HH12 ARG A   1       0.474  -2.091  22.053  0.00  0.00    +0.000 HD
ATOM      9  HE  ARG A   1       3.016  -4.385  20.974  0.00  0.00    +0.000 HD
ENDROOT
BRANCH   1  10
ATOM     10  CD  ARG A   1       0.917  -4.058  20.548  0.00  0.00    +0.000 C 
BRANCH  10  11
ATOM     11  CG  ARG A   1       1.012  -5.444  19.848  0.00  0.00    +0.000 C 
BRANCH  11  12
ATOM     12  CB  ARG A   1      -0.042  -5.654  18.789  0.00  0.00    +0.000 C 
BRANCH  12  13
ATOM     13  CA  ARG A   1      -0.133  -7.112  18.303  0.00  0.00    +0.000 C 
BRANCH  13  14
ATOM     14  N   ARG A   1      -1.099  -7.199  17.218  0.00  0.00    +0.000 NA
ATOM     15  H   ARG A   1      -1.928  -6.572  17.238  0.00  0.00    +0.000 HD
ENDBRANCH  13  14
BRANCH  13  16
ATOM     16  C   ARG A   1      -0.626  -8.000  19.433  0.00  0.00    +0.000 C 
ATOM     17  O   ARG A   1      -1.800  -7.984  19.741  0.00  0.00    +0.000 OA
ENDBRANCH  13  16
ENDBRANCH  12  13
ENDBRANCH  11  12
ENDBRANCH  10  11
ENDBRANCH   1  10
TORSDOF 6
REMARK  Name = ../refined-set-2016/3oy0/3oy0_pocket.pdb
REMARK  163 active torsions:
REMARK  status: ('A' for Active; 'I' for Inactive)
REMARK    1  A    between atoms: _1  and  _3
REMARK    2  A    between atoms: _3  and  _4
REMARK    3  A    between atoms: _3  and  _6
REMARK    4  A    between atoms: _6  and  _7
REMARK    5  A    between atoms: _17  and  _19
REMARK    6  A    between atoms: _19  and  _20
REMARK    7  A    between atoms: _19  and  _22
REMARK    8  A    between atoms: _22  and  _23
REMARK    9  A    between atoms: _28  and  _29
REMARK   10  A    between atoms: _31  and  _33
REMARK   11  A    between atoms: _33  and  _34
REMARK   12  A    between atoms: _33  and  _36
REMARK   13  A    between atoms: _36  and  _37
REMARK   14  A    between atoms: _40  and  _41
REMARK   15  A    between atoms: _46  and  _48
REMARK   16  A    between atoms: _48  and  _49
REMARK   17  A    between atoms: _48  and  _51
REMARK   18  A    between atoms: _51  and  _52
REMARK   19  A    between atoms: _55  and  _57
REMARK   20  A    between atoms: _57  and  _58
REMARK   21  A    between atoms: _57  and  _60
REMARK   22  A    between atoms: _60  and  _61
REMARK   23  A    between atoms: _66  and  _68
REMARK   24  A    between atoms: _68  and  _69
REMARK   25  A    between atoms: _68  and  _71
REMARK   26  A    between atoms: _71  and  _72
REMARK   27  A    between atoms: _77  and  _79
REMARK   28  A    between atoms: _79  and  _80
REMARK   29  A    between atoms: _83  and  _85
REMARK   30  A    between atoms: _85  and  _86
REMARK   31  A    between atoms: _85  and  _88
REMARK   32  A    between atoms: _88  and  _89
REMARK   33  A    between atoms: _94  and  _96
REMARK   34  A    between atoms: _96  and  _97
REMARK   35  A    between atoms: _96  and  _99
REMARK   36  A    between atoms: _99  and  _100
REMARK   37  A    between atoms: _100  and  _101
REMARK   38  A    between atoms: _104  and  _106
REMARK   39  A    between atoms: _106  and  _107
REMARK   40  A    between atoms: _106  and  _109
REMARK   41  A    between atoms: _109  and  _110
REMARK   42  A    between atoms: _113  and  _115
REMARK   43  A    between atoms: _115  and  _116
REMARK   44  A    between atoms: _115  and  _118
REMARK   45  A    between atoms: _118  and  _119
REMARK   46  A    between atoms: _119  and  _120
REMARK   47  A    between atoms: _125  and  _127
REMARK   48  A    between atoms: _127  and  _128
REMARK   49  A    between atoms: _127  and  _130
REMARK   50  A    between atoms: _130  and  _131
REMARK   51  A    between atoms: _137  and  _139
REMARK   52  A    between atoms: _150  and  _153
REMARK   53  A    between atoms: _153  and  _154
REMARK   54  A    between atoms: _162  and  _163
REMARK   55  A    between atoms: _171  and  _173
REMARK   56  A    between atoms: _173  and  _174
REMARK   57  A    between atoms: _173  and  _176
REMARK   58  A    between atoms: _176  and  _177
REMARK   59  A    between atoms: _177  and  _178
REMARK   60  A    between atoms: _181  and  _183
REMARK   61  A    between atoms: _183  and  _184
REMARK   62  A    between atoms: _183  and  _186
REMARK   63  A    between atoms: _186  and  _187
REMARK   64  A    between atoms: _192  and  _194
REMARK   65  A    between atoms: _194  and  _195
REMARK   66  A    between atoms: _194  and  _197
REMARK   67  A    between atoms: _197  and  _198
REMARK   68  A    between atoms: _198  and  _199
REMARK   69  A    between atoms: _202  and  _204
REMARK   70  A    between atoms: _204  and  _205
REMARK   71  A    between atoms: _204  and  _207
REMARK   72  A    between atoms: _207  and  _208
REMARK   73  A    between atoms: _211  and  _213
REMARK   74  A    between atoms: _213  and  _214
REMARK   75  A    between atoms: _213  and  _216
REMARK   76  A    between atoms: _216  and  _217
REMARK   77  A    between atoms: _218  and  ZN_450
REMARK   78  A    between atoms: _222  and  _224
REMARK   79  A    between atoms: _224  and  _225
REMARK   80  A    between atoms: _224  and  _227
REMARK   81  A    between atoms: _227  and  _228
REMARK   82  A    between atoms: _231  and  _233
REMARK   83  A    between atoms: _233  and  _234
REMARK   84  A    between atoms: _233  and  _236
REMARK   85  A    between atoms: _239  and  _241
REMARK   86  A    between atoms: _241  and  _242
REMARK   87  A    between atoms: _241  and  _244
REMARK   88  A    between atoms: _244  and  _245
REMARK   89  A    between atoms: _250  and  _252
REMARK   90  A    between atoms: _252  and  _253
REMARK   91  A    between atoms: _252  and  _255
REMARK   92  A    between atoms: _255  and  _256
REMARK   93  A    between atoms: _262  and  _264
REMARK   94  A    between atoms: _264  and  _265
REMARK   95  A    between atoms: _267  and  _269
REMARK   96  A    between atoms: _269  and  _270
REMARK   97  A    between atoms: _269  and  _272
REMARK   98  A    between atoms: _275  and  _277
REMARK   99  A    between atoms: _277  and  _278
REMARK  100  A    between atoms: _277  and  _280
REMARK  101  A    between atoms: _280  and  _281
REMARK  102  A    between atoms: _281  and  _282
REMARK  103  A    between atoms: _287  and  _289
REMARK  104  A    between atoms: _289  and  _290
REMARK  105  A    between atoms: _289  and  _292
REMARK  106  A    between atoms: _292  and  _293
REMARK  107  A    between atoms: _296  and  _298
REMARK  108  A    between atoms: _298  and  _299
REMARK  109  A    between atoms: _302  and  _304
REMARK  110  A    between atoms: _304  and  _305
REMARK  111  A    between atoms: _304  and  _307
REMARK  112  A    between atoms: _310  and  _312
REMARK  113  A    between atoms: _312  and  _313
REMARK  114  A    between atoms: _312  and  _315
REMARK  115  A    between atoms: _315  and  _316
REMARK  116  A    between atoms: _319  and  _321
REMARK  117  A    between atoms: _321  and  _322
REMARK  118  A    between atoms: _324  and  _326
REMARK  119  A    between atoms: _326  and  _327
REMARK  120  A    between atoms: _326  and  _329
REMARK  121  A    between atoms: _329  and  _330
REMARK  122  A    between atoms: _332  and  _334
REMARK  123  A    between atoms: _334  and  _335
REMARK  124  A    between atoms: _334  and  _337
REMARK  125  A    between atoms: _337  and  _338
REMARK  126  A    between atoms: _341  and  _343
REMARK  127  A    between atoms: _343  and  _344
REMARK  128  A    between atoms: _343  and  _346
REMARK  129  A    between atoms: _346  and  _347
REMARK  130  A    between atoms: _350  and  _352
REMARK  131  A    between atoms: _352  and  _353
REMARK  132  A    between atoms: _352  and  _355
REMARK  133  A    between atoms: _355  and  _356
REMARK  134  A    between atoms: _360  and  _361
REMARK  135  A    between atoms: _367  and  _368
REMARK  136  A    between atoms: _373  and  _375
REMARK  137  A    between atoms: _375  and  _376
REMARK  138  A    between atoms: _375  and  _378
REMARK  139  A    between atoms: _378  and  _379
REMARK  140  A    between atoms: _382  and  _384
REMARK  141  A    between atoms: _384  and  _385
REMARK  142  A    between atoms: _384  and  _387
REMARK  143  A    between atoms: _387  and  _388
REMARK  144  A    between atoms: _391  and  _393
REMARK  145  A    between atoms: _393  and  _394
REMARK  146  A    between atoms: _393  and  _396
REMARK  147  A    between atoms: _398  and  _400
REMARK  148  A    between atoms: _400  and  _401
REMARK  149  A    between atoms: _400  and  _403
REMARK  150  A    between atoms: _406  and  _408
REMARK  151  A    between atoms: _408  and  _409
REMARK  152  A    between atoms: _408  and  _411
REMARK  153  A    between atoms: _411  and  _412
REMARK  154  A    between atoms: _422  and  _424
REMARK  155  A    between atoms: _424  and  _425
REMARK  156  A    between atoms: _424  and  _427
REMARK  157  A    between atoms: _427  and  _428
REMARK  158  A    between atoms: _433  and  _435
REMARK  159  A    between atoms: _435  and  _436
REMARK  160  A    between atoms: _435  and  _438
REMARK  161  A    between atoms: _438  and  _439
REMARK  162  A    between atoms: _439  and  _440
REMARK  163  A    between atoms: _440  and  _441
REMARK                            x       y       z     vdW  Elec       q    Type
REMARK                         _______ _______ _______ _____ _____    ______ ____
ROOT
ATOM      1  O   HOH     1      -1.263  -3.982  15.803  0.00  0.00    +0.000 OA
ENDROOT
TORSDOF 0
REMARK  Name = ../refined-set-2016/3oy0/3oy0_pocket.pdb
REMARK  163 active torsions:
REMARK  status: ('A' for Active; 'I' for Inactive)
REMARK    1  A    between atoms: _1  and  _3
REMARK    2  A    between atoms: _3  and  _4
REMARK    3  A    between atoms: _3  and  _6
REMARK    4  A    between atoms: _6  and  _7
REMARK    5  A    between atoms: _17  and  _19
REMARK    6  A    between atoms: _19  and  _20
REMARK    7  A    between atoms: _19  and  _22
REMARK    8  A    between atoms: _22  and  _23
REMARK    9  A    between atoms: _28  and  _29
REMARK   10  A    between atoms: _31  and  _33
REMARK   11  A    between atoms: _33  and  _34
REMARK   12  A    between atoms: _33  and  _36
REMARK   13  A    between atoms: _36  and  _37
REMARK   14  A    between atoms: _40  and  _41
REMARK   15  A    between atoms: _46  and  _48
REMARK   16  A    between atoms: _48  and  _49
REMARK   17  A    between atoms: _48  and  _51
REMARK   18  A    between atoms: _51  and  _52
REMARK   19  A    between atoms: _55  and  _57
REMARK   20  A    between atoms: _57  and  _58
REMARK   21  A    between atoms: _57  and  _60
REMARK   22  A    between atoms: _60  and  _61
REMARK   23  A    between atoms: _66  and  _68
REMARK   24  A    between atoms: _68  and  _69
REMARK   25  A    between atoms: _68  and  _71
REMARK   26  A    between atoms: _71  and  _72
REMARK   27  A    between atoms: _77  and  _79
REMARK   28  A    between atoms: _79  and  _80
REMARK   29  A    between atoms: _83  and  _85
REMARK   30  A    between atoms: _85  and  _86
REMARK   31  A    between atoms: _85  and  _88
REMARK   32  A    between atoms: _88  and  _89
REMARK   33  A    between atoms: _94  and  _96
REMARK   34  A    between atoms: _96  and  _97
REMARK   35  A    between atoms: _96  and  _99
REMARK   36  A    between atoms: _99  and  _100
REMARK   37  A    between atoms: _100  and  _101
REMARK   38  A    between atoms: _104  and  _106
REMARK   39  A    between atoms: _106  and  _107
REMARK   40  A    between atoms: _106  and  _109
REMARK   41  A    between atoms: _109  and  _110
REMARK   42  A    between atoms: _113  and  _115
REMARK   43  A    between atoms: _115  and  _116
REMARK   44  A    between atoms: _115  and  _118
REMARK   45  A    between atoms: _118  and  _119
REMARK   46  A    between atoms: _119  and  _120
REMARK   47  A    between atoms: _125  and  _127
REMARK   48  A    between atoms: _127  and  _128
REMARK   49  A    between atoms: _127  and  _130
REMARK   50  A    between atoms: _130  and  _131
REMARK   51  A    between atoms: _137  and  _139
REMARK   52  A    between atoms: _150  and  _153
REMARK   53  A    between atoms: _153  and  _154
REMARK   54  A    between atoms: _162  and  _163
REMARK   55  A    between atoms: _171  and  _173
REMARK   56  A    between atoms: _173  and  _174
REMARK   57  A    between atoms: _173  and  _176
REMARK   58  A    between atoms: _176  and  _177
REMARK   59  A    between atoms: _177  and  _178
REMARK   60  A    between atoms: _181  and  _183
REMARK   61  A    between atoms: _183  and  _184
REMARK   62  A    between atoms: _183  and  _186
REMARK   63  A    between atoms: _186  and  _187
REMARK   64  A    between atoms: _192  and  _194
REMARK   65  A    between atoms: _194  and  _195
REMARK   66  A    between atoms: _194  and  _197
REMARK   67  A    between atoms: _197  and  _198
REMARK   68  A    between atoms: _198  and  _199
REMARK   69  A    between atoms: _202  and  _204
REMARK   70  A    between atoms: _204  and  _205
REMARK   71  A    between atoms: _204  and  _207
REMARK   72  A    between atoms: _207  and  _208
REMARK   73  A    between atoms: _211  and  _213
REMARK   74  A    between atoms: _213  and  _214
REMARK   75  A    between atoms: _213  and  _216
REMARK   76  A    between atoms: _216  and  _217
REMARK   77  A    between atoms: _218  and  ZN_450
REMARK   78  A    between atoms: _222  and  _224
REMARK   79  A    between atoms: _224  and  _225
REMARK   80  A    between atoms: _224  and  _227
REMARK   81  A    between atoms: _227  and  _228
REMARK   82  A    between atoms: _231  and  _233
REMARK   83  A    between atoms: _233  and  _234
REMARK   84  A    between atoms: _233  and  _236
REMARK   85  A    between atoms: _239  and  _241
REMARK   86  A    between atoms: _241  and  _242
REMARK   87  A    between atoms: _241  and  _244
REMARK   88  A    between atoms: _244  and  _245
REMARK   89  A    between atoms: _250  and  _252
REMARK   90  A    between atoms: _252  and  _253
REMARK   91  A    between atoms: _252  and  _255
REMARK   92  A    between atoms: _255  and  _256
REMARK   93  A    between atoms: _262  and  _264
REMARK   94  A    between atoms: _264  and  _265
REMARK   95  A    between atoms: _267  and  _269
REMARK   96  A    between atoms: _269  and  _270
REMARK   97  A    between atoms: _269  and  _272
REMARK   98  A    between atoms: _275  and  _277
REMARK   99  A    between atoms: _277  and  _278
REMARK  100  A    between atoms: _277  and  _280
REMARK  101  A    between atoms: _280  and  _281
REMARK  102  A    between atoms: _281  and  _282
REMARK  103  A    between atoms: _287  and  _289
REMARK  104  A    between atoms: _289  and  _290
REMARK  105  A    between atoms: _289  and  _292
REMARK  106  A    between atoms: _292  and  _293
REMARK  107  A    between atoms: _296  and  _298
REMARK  108  A    between atoms: _298  and  _299
REMARK  109  A    between atoms: _302  and  _304
REMARK  110  A    between atoms: _304  and  _305
REMARK  111  A    between atoms: _304  and  _307
REMARK  112  A    between atoms: _310  and  _312
REMARK  113  A    between atoms: _312  and  _313
REMARK  114  A    between atoms: _312  and  _315
REMARK  115  A    between atoms: _315  and  _316
REMARK  116  A    between atoms: _319  and  _321
REMARK  117  A    between atoms: _321  and  _322
REMARK  118  A    between atoms: _324  and  _326
REMARK  119  A    between atoms: _326  and  _327
REMARK  120  A    between atoms: _326  and  _329
REMARK  121  A    between atoms: _329  and  _330
REMARK  122  A    between atoms: _332  and  _334
REMARK  123  A    between atoms: _334  and  _335
REMARK  124  A    between atoms: _334  and  _337
REMARK  125  A    between atoms: _337  and  _338
REMARK  126  A    between atoms: _341  and  _343
REMARK  127  A    between atoms: _343  and  _344
REMARK  128  A    between atoms: _343  and  _346
REMARK  129  A    between atoms: _346  and  _347
REMARK  130  A    between atoms: _350  and  _352
REMARK  131  A    between atoms: _352  and  _353
REMARK  132  A    between atoms: _352  and  _355
REMARK  133  A    between atoms: _355  and  _356
REMARK  134  A    between atoms: _360  and  _361
REMARK  135  A    between atoms: _367  and  _368
REMARK  136  A    between atoms: _373  and  _375
REMARK  137  A    between atoms: _375  and  _376
REMARK  138  A    between atoms: _375  and  _378
REMARK  139  A    between atoms: _378  and  _379
REMARK  140  A    between atoms: _382  and  _384
REMARK  141  A    between atoms: _384  and  _385
REMARK  142  A    between atoms: _384  and  _387
REMARK  143  A    between atoms: _387  and  _388
REMARK  144  A    between atoms: _391  and  _393
REMARK  145  A    between atoms: _393  and  _394
REMARK  146  A    between atoms: _393  and  _396
REMARK  147  A    between atoms: _398  and  _400
REMARK  148  A    between atoms: _400  and  _401
REMARK  149  A    between atoms: _400  and  _403
REMARK  150  A    between atoms: _406  and  _408
REMARK  151  A    between atoms: _408  and  _409
REMARK  152  A    between atoms: _408  and  _411
REMARK  153  A    between atoms: _411  and  _412
REMARK  154  A    between atoms: _422  and  _424
REMARK  155  A    between atoms: _424  and  _425
REMARK  156  A    between atoms: _424  and  _427
REMARK  157  A    between atoms: _427  and  _428
REMARK  158  A    between atoms: _433  and  _435
REMARK  159  A    between atoms: _435  and  _436
REMARK  160  A    between atoms: _435  and  _438
REMARK  161  A    between atoms: _438  and  _439
REMARK  162  A    between atoms: _439  and  _440
REMARK  163  A    between atoms: _440  and  _441
REMARK                            x       y       z     vdW  Elec       q    Type
REMARK                         _______ _______ _______ _____ _____    ______ ____
ROOT
ATOM      1  O   HOH     1      -6.957   6.070   6.720  0.00  0.00    +0.000 OA
ENDROOT
TORSDOF 0
REMARK  Name = ../refined-set-2016/3oy0/3oy0_pocket.pdb
REMARK  163 active torsions:
REMARK  status: ('A' for Active; 'I' for Inactive)
REMARK    1  A    between atoms: _1  and  _3
REMARK    2  A    between atoms: _3  and  _4
REMARK    3  A    between atoms: _3  and  _6
REMARK    4  A    between atoms: _6  and  _7
REMARK    5  A    between atoms: _17  and  _19
REMARK    6  A    between atoms: _19  and  _20
REMARK    7  A    between atoms: _19  and  _22
REMARK    8  A    between atoms: _22  and  _23
REMARK    9  A    between atoms: _28  and  _29
REMARK   10  A    between atoms: _31  and  _33
REMARK   11  A    between atoms: _33  and  _34
REMARK   12  A    between atoms: _33  and  _36
REMARK   13  A    between atoms: _36  and  _37
REMARK   14  A    between atoms: _40  and  _41
REMARK   15  A    between atoms: _46  and  _48
REMARK   16  A    between atoms: _48  and  _49
REMARK   17  A    between atoms: _48  and  _51
REMARK   18  A    between atoms: _51  and  _52
REMARK   19  A    between atoms: _55  and  _57
REMARK   20  A    between atoms: _57  and  _58
REMARK   21  A    between atoms: _57  and  _60
REMARK   22  A    between atoms: _60  and  _61
REMARK   23  A    between atoms: _66  and  _68
REMARK   24  A    between atoms: _68  and  _69
REMARK   25  A    between atoms: _68  and  _71
REMARK   26  A    between atoms: _71  and  _72
REMARK   27  A    between atoms: _77  and  _79
REMARK   28  A    between atoms: _79  and  _80
REMARK   29  A    between atoms: _83  and  _85
REMARK   30  A    between atoms: _85  and  _86
REMARK   31  A    between atoms: _85  and  _88
REMARK   32  A    between atoms: _88  and  _89
REMARK   33  A    between atoms: _94  and  _96
REMARK   34  A    between atoms: _96  and  _97
REMARK   35  A    between atoms: _96  and  _99
REMARK   36  A    between atoms: _99  and  _100
REMARK   37  A    between atoms: _100  and  _101
REMARK   38  A    between atoms: _104  and  _106
REMARK   39  A    between atoms: _106  and  _107
REMARK   40  A    between atoms: _106  and  _109
REMARK   41  A    between atoms: _109  and  _110
REMARK   42  A    between atoms: _113  and  _115
REMARK   43  A    between atoms: _115  and  _116
REMARK   44  A    between atoms: _115  and  _118
REMARK   45  A    between atoms: _118  and  _119
REMARK   46  A    between atoms: _119  and  _120
REMARK   47  A    between atoms: _125  and  _127
REMARK   48  A    between atoms: _127  and  _128
REMARK   49  A    between atoms: _127  and  _130
REMARK   50  A    between atoms: _130  and  _131
REMARK   51  A    between atoms: _137  and  _139
REMARK   52  A    between atoms: _150  and  _153
REMARK   53  A    between atoms: _153  and  _154
REMARK   54  A    between atoms: _162  and  _163
REMARK   55  A    between atoms: _171  and  _173
REMARK   56  A    between atoms: _173  and  _174
REMARK   57  A    between atoms: _173  and  _176
REMARK   58  A    between atoms: _176  and  _177
REMARK   59  A    between atoms: _177  and  _178
REMARK   60  A    between atoms: _181  and  _183
REMARK   61  A    between atoms: _183  and  _184
REMARK   62  A    between atoms: _183  and  _186
REMARK   63  A    between atoms: _186  and  _187
REMARK   64  A    between atoms: _192  and  _194
REMARK   65  A    between atoms: _194  and  _195
REMARK   66  A    between atoms: _194  and  _197
REMARK   67  A    between atoms: _197  and  _198
REMARK   68  A    between atoms: _198  and  _199
REMARK   69  A    between atoms: _202  and  _204
REMARK   70  A    between atoms: _204  and  _205
REMARK   71  A    between atoms: _204  and  _207
REMARK   72  A    between atoms: _207  and  _208
REMARK   73  A    between atoms: _211  and  _213
REMARK   74  A    between atoms: _213  and  _214
REMARK   75  A    between atoms: _213  and  _216
REMARK   76  A    between atoms: _216  and  _217
REMARK   77  A    between atoms: _218  and  ZN_450
REMARK   78  A    between atoms: _222  and  _224
REMARK   79  A    between atoms: _224  and  _225
REMARK   80  A    between atoms: _224  and  _227
REMARK   81  A    between atoms: _227  and  _228
REMARK   82  A    between atoms: _231  and  _233
REMARK   83  A    between atoms: _233  and  _234
REMARK   84  A    between atoms: _233  and  _236
REMARK   85  A    between atoms: _239  and  _241
REMARK   86  A    between atoms: _241  and  _242
REMARK   87  A    between atoms: _241  and  _244
REMARK   88  A    between atoms: _244  and  _245
REMARK   89  A    between atoms: _250  and  _252
REMARK   90  A    between atoms: _252  and  _253
REMARK   91  A    between atoms: _252  and  _255
REMARK   92  A    between atoms: _255  and  _256
REMARK   93  A    between atoms: _262  and  _264
REMARK   94  A    between atoms: _264  and  _265
REMARK   95  A    between atoms: _267  and  _269
REMARK   96  A    between atoms: _269  and  _270
REMARK   97  A    between atoms: _269  and  _272
REMARK   98  A    between atoms: _275  and  _277
REMARK   99  A    between atoms: _277  and  _278
REMARK  100  A    between atoms: _277  and  _280
REMARK  101  A    between atoms: _280  and  _281
REMARK  102  A    between atoms: _281  and  _282
REMARK  103  A    between atoms: _287  and  _289
REMARK  104  A    between atoms: _289  and  _290
REMARK  105  A    between atoms: _289  and  _292
REMARK  106  A    between atoms: _292  and  _293
REMARK  107  A    between atoms: _296  and  _298
REMARK  108  A    between atoms: _298  and  _299
REMARK  109  A    between atoms: _302  and  _304
REMARK  110  A    between atoms: _304  and  _305
REMARK  111  A    between atoms: _304  and  _307
REMARK  112  A    between atoms: _310  and  _312
REMARK  113  A    between atoms: _312  and  _313
REMARK  114  A    between atoms: _312  and  _315
REMARK  115  A    between atoms: _315  and  _316
REMARK  116  A    between atoms: _319  and  _321
REMARK  117  A    between atoms: _321  and  _322
REMARK  118  A    between atoms: _324  and  _326
REMARK  119  A    between atoms: _326  and  _327
REMARK  120  A    between atoms: _326  and  _329
REMARK  121  A    between atoms: _329  and  _330
REMARK  122  A    between atoms: _332  and  _334
REMARK  123  A    between atoms: _334  and  _335
REMARK  124  A    between atoms: _334  and  _337
REMARK  125  A    between atoms: _337  and  _338
REMARK  126  A    between atoms: _341  and  _343
REMARK  127  A    between atoms: _343  and  _344
REMARK  128  A    between atoms: _343  and  _346
REMARK  129  A    between atoms: _346  and  _347
REMARK  130  A    between atoms: _350  and  _352
REMARK  131  A    between atoms: _352  and  _353
REMARK  132  A    between atoms: _352  and  _355
REMARK  133  A    between atoms: _355  and  _356
REMARK  134  A    between atoms: _360  and  _361
REMARK  135  A    between atoms: _367  and  _368
REMARK  136  A    between atoms: _373  and  _375
REMARK  137  A    between atoms: _375  and  _376
REMARK  138  A    between atoms: _375  and  _378
REMARK  139  A    between atoms: _378  and  _379
REMARK  140  A    between atoms: _382  and  _384
REMARK  141  A    between atoms: _384  and  _385
REMARK  142  A    between atoms: _384  and  _387
REMARK  143  A    between atoms: _387  and  _388
REMARK  144  A    between atoms: _391  and  _393
REMARK  145  A    between atoms: _393  and  _394
REMARK  146  A    between atoms: _393  and  _396
REMARK  147  A    between atoms: _398  and  _400
REMARK  148  A    between atoms: _400  and  _401
REMARK  149  A    between atoms: _400  and  _403
REMARK  150  A    between atoms: _406  and  _408
REMARK  151  A    between atoms: _408  and  _409
REMARK  152  A    between atoms: _408  and  _411
REMARK  153  A    between atoms: _411  and  _412
REMARK  154  A    between atoms: _422  and  _424
REMARK  155  A    between atoms: _424  and  _425
REMARK  156  A    between atoms: _424  and  _427
REMARK  157  A    between atoms: _427  and  _428
REMARK  158  A    between atoms: _433  and  _435
REMARK  159  A    between atoms: _435  and  _436
REMARK  160  A    between atoms: _435  and  _438
REMARK  161  A    between atoms: _438  and  _439
REMARK  162  A    between atoms: _439  and  _440
REMARK  163  A    between atoms: _440  and  _441
REMARK                            x       y       z     vdW  Elec       q    Type
REMARK                         _______ _______ _______ _____ _____    ______ ____
ROOT
ATOM      1  O   HOH     1      -6.568   6.875  11.568  0.00  0.00    +0.000 OA
ENDROOT
TORSDOF 0
REMARK  Name = ../refined-set-2016/3oy0/3oy0_pocket.pdb
REMARK  163 active torsions:
REMARK  status: ('A' for Active; 'I' for Inactive)
REMARK    1  A    between atoms: _1  and  _3
REMARK    2  A    between atoms: _3  and  _4
REMARK    3  A    between atoms: _3  and  _6
REMARK    4  A    between atoms: _6  and  _7
REMARK    5  A    between atoms: _17  and  _19
REMARK    6  A    between atoms: _19  and  _20
REMARK    7  A    between atoms: _19  and  _22
REMARK    8  A    between atoms: _22  and  _23
REMARK    9  A    between atoms: _28  and  _29
REMARK   10  A    between atoms: _31  and  _33
REMARK   11  A    between atoms: _33  and  _34
REMARK   12  A    between atoms: _33  and  _36
REMARK   13  A    between atoms: _36  and  _37
REMARK   14  A    between atoms: _40  and  _41
REMARK   15  A    between atoms: _46  and  _48
REMARK   16  A    between atoms: _48  and  _49
REMARK   17  A    between atoms: _48  and  _51
REMARK   18  A    between atoms: _51  and  _52
REMARK   19  A    between atoms: _55  and  _57
REMARK   20  A    between atoms: _57  and  _58
REMARK   21  A    between atoms: _57  and  _60
REMARK   22  A    between atoms: _60  and  _61
REMARK   23  A    between atoms: _66  and  _68
REMARK   24  A    between atoms: _68  and  _69
REMARK   25  A    between atoms: _68  and  _71
REMARK   26  A    between atoms: _71  and  _72
REMARK   27  A    between atoms: _77  and  _79
REMARK   28  A    between atoms: _79  and  _80
REMARK   29  A    between atoms: _83  and  _85
REMARK   30  A    between atoms: _85  and  _86
REMARK   31  A    between atoms: _85  and  _88
REMARK   32  A    between atoms: _88  and  _89
REMARK   33  A    between atoms: _94  and  _96
REMARK   34  A    between atoms: _96  and  _97
REMARK   35  A    between atoms: _96  and  _99
REMARK   36  A    between atoms: _99  and  _100
REMARK   37  A    between atoms: _100  and  _101
REMARK   38  A    between atoms: _104  and  _106
REMARK   39  A    between atoms: _106  and  _107
REMARK   40  A    between atoms: _106  and  _109
REMARK   41  A    between atoms: _109  and  _110
REMARK   42  A    between atoms: _113  and  _115
REMARK   43  A    between atoms: _115  and  _116
REMARK   44  A    between atoms: _115  and  _118
REMARK   45  A    between atoms: _118  and  _119
REMARK   46  A    between atoms: _119  and  _120
REMARK   47  A    between atoms: _125  and  _127
REMARK   48  A    between atoms: _127  and  _128
REMARK   49  A    between atoms: _127  and  _130
REMARK   50  A    between atoms: _130  and  _131
REMARK   51  A    between atoms: _137  and  _139
REMARK   52  A    between atoms: _150  and  _153
REMARK   53  A    between atoms: _153  and  _154
REMARK   54  A    between atoms: _162  and  _163
REMARK   55  A    between atoms: _171  and  _173
REMARK   56  A    between atoms: _173  and  _174
REMARK   57  A    between atoms: _173  and  _176
REMARK   58  A    between atoms: _176  and  _177
REMARK   59  A    between atoms: _177  and  _178
REMARK   60  A    between atoms: _181  and  _183
REMARK   61  A    between atoms: _183  and  _184
REMARK   62  A    between atoms: _183  and  _186
REMARK   63  A    between atoms: _186  and  _187
REMARK   64  A    between atoms: _192  and  _194
REMARK   65  A    between atoms: _194  and  _195
REMARK   66  A    between atoms: _194  and  _197
REMARK   67  A    between atoms: _197  and  _198
REMARK   68  A    between atoms: _198  and  _199
REMARK   69  A    between atoms: _202  and  _204
REMARK   70  A    between atoms: _204  and  _205
REMARK   71  A    between atoms: _204  and  _207
REMARK   72  A    between atoms: _207  and  _208
REMARK   73  A    between atoms: _211  and  _213
REMARK   74  A    between atoms: _213  and  _214
REMARK   75  A    between atoms: _213  and  _216
REMARK   76  A    between atoms: _216  and  _217
REMARK   77  A    between atoms: _218  and  ZN_450
REMARK   78  A    between atoms: _222  and  _224
REMARK   79  A    between atoms: _224  and  _225
REMARK   80  A    between atoms: _224  and  _227
REMARK   81  A    between atoms: _227  and  _228
REMARK   82  A    between atoms: _231  and  _233
REMARK   83  A    between atoms: _233  and  _234
REMARK   84  A    between atoms: _233  and  _236
REMARK   85  A    between atoms: _239  and  _241
REMARK   86  A    between atoms: _241  and  _242
REMARK   87  A    between atoms: _241  and  _244
REMARK   88  A    between atoms: _244  and  _245
REMARK   89  A    between atoms: _250  and  _252
REMARK   90  A    between atoms: _252  and  _253
REMARK   91  A    between atoms: _252  and  _255
REMARK   92  A    between atoms: _255  and  _256
REMARK   93  A    between atoms: _262  and  _264
REMARK   94  A    between atoms: _264  and  _265
REMARK   95  A    between atoms: _267  and  _269
REMARK   96  A    between atoms: _269  and  _270
REMARK   97  A    between atoms: _269  and  _272
REMARK   98  A    between atoms: _275  and  _277
REMARK   99  A    between atoms: _277  and  _278
REMARK  100  A    between atoms: _277  and  _280
REMARK  101  A    between atoms: _280  and  _281
REMARK  102  A    between atoms: _281  and  _282
REMARK  103  A    between atoms: _287  and  _289
REMARK  104  A    between atoms: _289  and  _290
REMARK  105  A    between atoms: _289  and  _292
REMARK  106  A    between atoms: _292  and  _293
REMARK  107  A    between atoms: _296  and  _298
REMARK  108  A    between atoms: _298  and  _299
REMARK  109  A    between atoms: _302  and  _304
REMARK  110  A    between atoms: _304  and  _305
REMARK  111  A    between atoms: _304  and  _307
REMARK  112  A    between atoms: _310  and  _312
REMARK  113  A    between atoms: _312  and  _313
REMARK  114  A    between atoms: _312  and  _315
REMARK  115  A    between atoms: _315  and  _316
REMARK  116  A    between atoms: _319  and  _321
REMARK  117  A    between atoms: _321  and  _322
REMARK  118  A    between atoms: _324  and  _326
REMARK  119  A    between atoms: _326  and  _327
REMARK  120  A    between atoms: _326  and  _329
REMARK  121  A    between atoms: _329  and  _330
REMARK  122  A    between atoms: _332  and  _334
REMARK  123  A    between atoms: _334  and  _335
REMARK  124  A    between atoms: _334  and  _337
REMARK  125  A    between atoms: _337  and  _338
REMARK  126  A    between atoms: _341  and  _343
REMARK  127  A    between atoms: _343  and  _344
REMARK  128  A    between atoms: _343  and  _346
REMARK  129  A    between atoms: _346  and  _347
REMARK  130  A    between atoms: _350  and  _352
REMARK  131  A    between atoms: _352  and  _353
REMARK  132  A    between atoms: _352  and  _355
REMARK  133  A    between atoms: _355  and  _356
REMARK  134  A    between atoms: _360  and  _361
REMARK  135  A    between atoms: _367  and  _368
REMARK  136  A    between atoms: _373  and  _375
REMARK  137  A    between atoms: _375  and  _376
REMARK  138  A    between atoms: _375  and  _378
REMARK  139  A    between atoms: _378  and  _379
REMARK  140  A    between atoms: _382  and  _384
REMARK  141  A    between atoms: _384  and  _385
REMARK  142  A    between atoms: _384  and  _387
REMARK  143  A    between atoms: _387  and  _388
REMARK  144  A    between atoms: _391  and  _393
REMARK  145  A    between atoms: _393  and  _394
REMARK  146  A    between atoms: _393  and  _396
REMARK  147  A    between atoms: _398  and  _400
REMARK  148  A    between atoms: _400  and  _401
REMARK  149  A    between atoms: _400  and  _403
REMARK  150  A    between atoms: _406  and  _408
REMARK  151  A    between atoms: _408  and  _409
REMARK  152  A    between atoms: _408  and  _411
REMARK  153  A    between atoms: _411  and  _412
REMARK  154  A    between atoms: _422  and  _424
REMARK  155  A    between atoms: _424  and  _425
REMARK  156  A    between atoms: _424  and  _427
REMARK  157  A    between atoms: _427  and  _428
REMARK  158  A    between atoms: _433  and  _435
REMARK  159  A    between atoms: _435  and  _436
REMARK  160  A    between atoms: _435  and  _438
REMARK  161  A    between atoms: _438  and  _439
REMARK  162  A    between atoms: _439  and  _440
REMARK  163  A    between atoms: _440  and  _441
REMARK                            x       y       z     vdW  Elec       q    Type
REMARK                         _______ _______ _______ _____ _____    ______ ____
ROOT
ATOM      1  O   HOH     1      -0.359   4.289  12.930  0.00  0.00    +0.000 OA
ENDROOT
TORSDOF 0
REMARK  Name = ../refined-set-2016/3oy0/3oy0_pocket.pdb
REMARK  163 active torsions:
REMARK  status: ('A' for Active; 'I' for Inactive)
REMARK    1  A    between atoms: _1  and  _3
REMARK    2  A    between atoms: _3  and  _4
REMARK    3  A    between atoms: _3  and  _6
REMARK    4  A    between atoms: _6  and  _7
REMARK    5  A    between atoms: _17  and  _19
REMARK    6  A    between atoms: _19  and  _20
REMARK    7  A    between atoms: _19  and  _22
REMARK    8  A    between atoms: _22  and  _23
REMARK    9  A    between atoms: _28  and  _29
REMARK   10  A    between atoms: _31  and  _33
REMARK   11  A    between atoms: _33  and  _34
REMARK   12  A    between atoms: _33  and  _36
REMARK   13  A    between atoms: _36  and  _37
REMARK   14  A    between atoms: _40  and  _41
REMARK   15  A    between atoms: _46  and  _48
REMARK   16  A    between atoms: _48  and  _49
REMARK   17  A    between atoms: _48  and  _51
REMARK   18  A    between atoms: _51  and  _52
REMARK   19  A    between atoms: _55  and  _57
REMARK   20  A    between atoms: _57  and  _58
REMARK   21  A    between atoms: _57  and  _60
REMARK   22  A    between atoms: _60  and  _61
REMARK   23  A    between atoms: _66  and  _68
REMARK   24  A    between atoms: _68  and  _69
REMARK   25  A    between atoms: _68  and  _71
REMARK   26  A    between atoms: _71  and  _72
REMARK   27  A    between atoms: _77  and  _79
REMARK   28  A    between atoms: _79  and  _80
REMARK   29  A    between atoms: _83  and  _85
REMARK   30  A    between atoms: _85  and  _86
REMARK   31  A    between atoms: _85  and  _88
REMARK   32  A    between atoms: _88  and  _89
REMARK   33  A    between atoms: _94  and  _96
REMARK   34  A    between atoms: _96  and  _97
REMARK   35  A    between atoms: _96  and  _99
REMARK   36  A    between atoms: _99  and  _100
REMARK   37  A    between atoms: _100  and  _101
REMARK   38  A    between atoms: _104  and  _106
REMARK   39  A    between atoms: _106  and  _107
REMARK   40  A    between atoms: _106  and  _109
REMARK   41  A    between atoms: _109  and  _110
REMARK   42  A    between atoms: _113  and  _115
REMARK   43  A    between atoms: _115  and  _116
REMARK   44  A    between atoms: _115  and  _118
REMARK   45  A    between atoms: _118  and  _119
REMARK   46  A    between atoms: _119  and  _120
REMARK   47  A    between atoms: _125  and  _127
REMARK   48  A    between atoms: _127  and  _128
REMARK   49  A    between atoms: _127  and  _130
REMARK   50  A    between atoms: _130  and  _131
REMARK   51  A    between atoms: _137  and  _139
REMARK   52  A    between atoms: _150  and  _153
REMARK   53  A    between atoms: _153  and  _154
REMARK   54  A    between atoms: _162  and  _163
REMARK   55  A    between atoms: _171  and  _173
REMARK   56  A    between atoms: _173  and  _174
REMARK   57  A    between atoms: _173  and  _176
REMARK   58  A    between atoms: _176  and  _177
REMARK   59  A    between atoms: _177  and  _178
REMARK   60  A    between atoms: _181  and  _183
REMARK   61  A    between atoms: _183  and  _184
REMARK   62  A    between atoms: _183  and  _186
REMARK   63  A    between atoms: _186  and  _187
REMARK   64  A    between atoms: _192  and  _194
REMARK   65  A    between atoms: _194  and  _195
REMARK   66  A    between atoms: _194  and  _197
REMARK   67  A    between atoms: _197  and  _198
REMARK   68  A    between atoms: _198  and  _199
REMARK   69  A    between atoms: _202  and  _204
REMARK   70  A    between atoms: _204  and  _205
REMARK   71  A    between atoms: _204  and  _207
REMARK   72  A    between atoms: _207  and  _208
REMARK   73  A    between atoms: _211  and  _213
REMARK   74  A    between atoms: _213  and  _214
REMARK   75  A    between atoms: _213  and  _216
REMARK   76  A    between atoms: _216  and  _217
REMARK   77  A    between atoms: _218  and  ZN_450
REMARK   78  A    between atoms: _222  and  _224
REMARK   79  A    between atoms: _224  and  _225
REMARK   80  A    between atoms: _224  and  _227
REMARK   81  A    between atoms: _227  and  _228
REMARK   82  A    between atoms: _231  and  _233
REMARK   83  A    between atoms: _233  and  _234
REMARK   84  A    between atoms: _233  and  _236
REMARK   85  A    between atoms: _239  and  _241
REMARK   86  A    between atoms: _241  and  _242
REMARK   87  A    between atoms: _241  and  _244
REMARK   88  A    between atoms: _244  and  _245
REMARK   89  A    between atoms: _250  and  _252
REMARK   90  A    between atoms: _252  and  _253
REMARK   91  A    between atoms: _252  and  _255
REMARK   92  A    between atoms: _255  and  _256
REMARK   93  A    between atoms: _262  and  _264
REMARK   94  A    between atoms: _264  and  _265
REMARK   95  A    between atoms: _267  and  _269
REMARK   96  A    between atoms: _269  and  _270
REMARK   97  A    between atoms: _269  and  _272
REMARK   98  A    between atoms: _275  and  _277
REMARK   99  A    between atoms: _277  and  _278
REMARK  100  A    between atoms: _277  and  _280
REMARK  101  A    between atoms: _280  and  _281
REMARK  102  A    between atoms: _281  and  _282
REMARK  103  A    between atoms: _287  and  _289
REMARK  104  A    between atoms: _289  and  _290
REMARK  105  A    between atoms: _289  and  _292
REMARK  106  A    between atoms: _292  and  _293
REMARK  107  A    between atoms: _296  and  _298
REMARK  108  A    between atoms: _298  and  _299
REMARK  109  A    between atoms: _302  and  _304
REMARK  110  A    between atoms: _304  and  _305
REMARK  111  A    between atoms: _304  and  _307
REMARK  112  A    between atoms: _310  and  _312
REMARK  113  A    between atoms: _312  and  _313
REMARK  114  A    between atoms: _312  and  _315
REMARK  115  A    between atoms: _315  and  _316
REMARK  116  A    between atoms: _319  and  _321
REMARK  117  A    between atoms: _321  and  _322
REMARK  118  A    between atoms: _324  and  _326
REMARK  119  A    between atoms: _326  and  _327
REMARK  120  A    between atoms: _326  and  _329
REMARK  121  A    between atoms: _329  and  _330
REMARK  122  A    between atoms: _332  and  _334
REMARK  123  A    between atoms: _334  and  _335
REMARK  124  A    between atoms: _334  and  _337
REMARK  125  A    between atoms: _337  and  _338
REMARK  126  A    between atoms: _341  and  _343
REMARK  127  A    between atoms: _343  and  _344
REMARK  128  A    between atoms: _343  and  _346
REMARK  129  A    between atoms: _346  and  _347
REMARK  130  A    between atoms: _350  and  _352
REMARK  131  A    between atoms: _352  and  _353
REMARK  132  A    between atoms: _352  and  _355
REMARK  133  A    between atoms: _355  and  _356
REMARK  134  A    between atoms: _360  and  _361
REMARK  135  A    between atoms: _367  and  _368
REMARK  136  A    between atoms: _373  and  _375
REMARK  137  A    between atoms: _375  and  _376
REMARK  138  A    between atoms: _375  and  _378
REMARK  139  A    between atoms: _378  and  _379
REMARK  140  A    between atoms: _382  and  _384
REMARK  141  A    between atoms: _384  and  _385
REMARK  142  A    between atoms: _384  and  _387
REMARK  143  A    between atoms: _387  and  _388
REMARK  144  A    between atoms: _391  and  _393
REMARK  145  A    between atoms: _393  and  _394
REMARK  146  A    between atoms: _393  and  _396
REMARK  147  A    between atoms: _398  and  _400
REMARK  148  A    between atoms: _400  and  _401
REMARK  149  A    between atoms: _400  and  _403
REMARK  150  A    between atoms: _406  and  _408
REMARK  151  A    between atoms: _408  and  _409
REMARK  152  A    between atoms: _408  and  _411
REMARK  153  A    between atoms: _411  and  _412
REMARK  154  A    between atoms: _422  and  _424
REMARK  155  A    between atoms: _424  and  _425
REMARK  156  A    between atoms: _424  and  _427
REMARK  157  A    between atoms: _427  and  _428
REMARK  158  A    between atoms: _433  and  _435
REMARK  159  A    between atoms: _435  and  _436
REMARK  160  A    between atoms: _435  and  _438
REMARK  161  A    between atoms: _438  and  _439
REMARK  162  A    between atoms: _439  and  _440
REMARK  163  A    between atoms: _440  and  _441
REMARK                            x       y       z     vdW  Elec       q    Type
REMARK                         _______ _______ _______ _____ _____    ______ ____
ROOT
ATOM      1  O   HOH     1      -8.063  11.856  17.125  0.00  0.00    +0.000 OA
ENDROOT
TORSDOF 0
REMARK  Name = ../refined-set-2016/3oy0/3oy0_pocket.pdb
REMARK  163 active torsions:
REMARK  status: ('A' for Active; 'I' for Inactive)
REMARK    1  A    between atoms: _1  and  _3
REMARK    2  A    between atoms: _3  and  _4
REMARK    3  A    between atoms: _3  and  _6
REMARK    4  A    between atoms: _6  and  _7
REMARK    5  A    between atoms: _17  and  _19
REMARK    6  A    between atoms: _19  and  _20
REMARK    7  A    between atoms: _19  and  _22
REMARK    8  A    between atoms: _22  and  _23
REMARK    9  A    between atoms: _28  and  _29
REMARK   10  A    between atoms: _31  and  _33
REMARK   11  A    between atoms: _33  and  _34
REMARK   12  A    between atoms: _33  and  _36
REMARK   13  A    between atoms: _36  and  _37
REMARK   14  A    between atoms: _40  and  _41
REMARK   15  A    between atoms: _46  and  _48
REMARK   16  A    between atoms: _48  and  _49
REMARK   17  A    between atoms: _48  and  _51
REMARK   18  A    between atoms: _51  and  _52
REMARK   19  A    between atoms: _55  and  _57
REMARK   20  A    between atoms: _57  and  _58
REMARK   21  A    between atoms: _57  and  _60
REMARK   22  A    between atoms: _60  and  _61
REMARK   23  A    between atoms: _66  and  _68
REMARK   24  A    between atoms: _68  and  _69
REMARK   25  A    between atoms: _68  and  _71
REMARK   26  A    between atoms: _71  and  _72
REMARK   27  A    between atoms: _77  and  _79
REMARK   28  A    between atoms: _79  and  _80
REMARK   29  A    between atoms: _83  and  _85
REMARK   30  A    between atoms: _85  and  _86
REMARK   31  A    between atoms: _85  and  _88
REMARK   32  A    between atoms: _88  and  _89
REMARK   33  A    between atoms: _94  and  _96
REMARK   34  A    between atoms: _96  and  _97
REMARK   35  A    between atoms: _96  and  _99
REMARK   36  A    between atoms: _99  and  _100
REMARK   37  A    between atoms: _100  and  _101
REMARK   38  A    between atoms: _104  and  _106
REMARK   39  A    between atoms: _106  and  _107
REMARK   40  A    between atoms: _106  and  _109
REMARK   41  A    between atoms: _109  and  _110
REMARK   42  A    between atoms: _113  and  _115
REMARK   43  A    between atoms: _115  and  _116
REMARK   44  A    between atoms: _115  and  _118
REMARK   45  A    between atoms: _118  and  _119
REMARK   46  A    between atoms: _119  and  _120
REMARK   47  A    between atoms: _125  and  _127
REMARK   48  A    between atoms: _127  and  _128
REMARK   49  A    between atoms: _127  and  _130
REMARK   50  A    between atoms: _130  and  _131
REMARK   51  A    between atoms: _137  and  _139
REMARK   52  A    between atoms: _150  and  _153
REMARK   53  A    between atoms: _153  and  _154
REMARK   54  A    between atoms: _162  and  _163
REMARK   55  A    between atoms: _171  and  _173
REMARK   56  A    between atoms: _173  and  _174
REMARK   57  A    between atoms: _173  and  _176
REMARK   58  A    between atoms: _176  and  _177
REMARK   59  A    between atoms: _177  and  _178
REMARK   60  A    between atoms: _181  and  _183
REMARK   61  A    between atoms: _183  and  _184
REMARK   62  A    between atoms: _183  and  _186
REMARK   63  A    between atoms: _186  and  _187
REMARK   64  A    between atoms: _192  and  _194
REMARK   65  A    between atoms: _194  and  _195
REMARK   66  A    between atoms: _194  and  _197
REMARK   67  A    between atoms: _197  and  _198
REMARK   68  A    between atoms: _198  and  _199
REMARK   69  A    between atoms: _202  and  _204
REMARK   70  A    between atoms: _204  and  _205
REMARK   71  A    between atoms: _204  and  _207
REMARK   72  A    between atoms: _207  and  _208
REMARK   73  A    between atoms: _211  and  _213
REMARK   74  A    between atoms: _213  and  _214
REMARK   75  A    between atoms: _213  and  _216
REMARK   76  A    between atoms: _216  and  _217
REMARK   77  A    between atoms: _218  and  ZN_450
REMARK   78  A    between atoms: _222  and  _224
REMARK   79  A    between atoms: _224  and  _225
REMARK   80  A    between atoms: _224  and  _227
REMARK   81  A    between atoms: _227  and  _228
REMARK   82  A    between atoms: _231  and  _233
REMARK   83  A    between atoms: _233  and  _234
REMARK   84  A    between atoms: _233  and  _236
REMARK   85  A    between atoms: _239  and  _241
REMARK   86  A    between atoms: _241  and  _242
REMARK   87  A    between atoms: _241  and  _244
REMARK   88  A    between atoms: _244  and  _245
REMARK   89  A    between atoms: _250  and  _252
REMARK   90  A    between atoms: _252  and  _253
REMARK   91  A    between atoms: _252  and  _255
REMARK   92  A    between atoms: _255  and  _256
REMARK   93  A    between atoms: _262  and  _264
REMARK   94  A    between atoms: _264  and  _265
REMARK   95  A    between atoms: _267  and  _269
REMARK   96  A    between atoms: _269  and  _270
REMARK   97  A    between atoms: _269  and  _272
REMARK   98  A    between atoms: _275  and  _277
REMARK   99  A    between atoms: _277  and  _278
REMARK  100  A    between atoms: _277  and  _280
REMARK  101  A    between atoms: _280  and  _281
REMARK  102  A    between atoms: _281  and  _282
REMARK  103  A    between atoms: _287  and  _289
REMARK  104  A    between atoms: _289  and  _290
REMARK  105  A    between atoms: _289  and  _292
REMARK  106  A    between atoms: _292  and  _293
REMARK  107  A    between atoms: _296  and  _298
REMARK  108  A    between atoms: _298  and  _299
REMARK  109  A    between atoms: _302  and  _304
REMARK  110  A    between atoms: _304  and  _305
REMARK  111  A    between atoms: _304  and  _307
REMARK  112  A    between atoms: _310  and  _312
REMARK  113  A    between atoms: _312  and  _313
REMARK  114  A    between atoms: _312  and  _315
REMARK  115  A    between atoms: _315  and  _316
REMARK  116  A    between atoms: _319  and  _321
REMARK  117  A    between atoms: _321  and  _322
REMARK  118  A    between atoms: _324  and  _326
REMARK  119  A    between atoms: _326  and  _327
REMARK  120  A    between atoms: _326  and  _329
REMARK  121  A    between atoms: _329  and  _330
REMARK  122  A    between atoms: _332  and  _334
REMARK  123  A    between atoms: _334  and  _335
REMARK  124  A    between atoms: _334  and  _337
REMARK  125  A    between atoms: _337  and  _338
REMARK  126  A    between atoms: _341  and  _343
REMARK  127  A    between atoms: _343  and  _344
REMARK  128  A    between atoms: _343  and  _346
REMARK  129  A    between atoms: _346  and  _347
REMARK  130  A    between atoms: _350  and  _352
REMARK  131  A    between atoms: _352  and  _353
REMARK  132  A    between atoms: _352  and  _355
REMARK  133  A    between atoms: _355  and  _356
REMARK  134  A    between atoms: _360  and  _361
REMARK  135  A    between atoms: _367  and  _368
REMARK  136  A    between atoms: _373  and  _375
REMARK  137  A    between atoms: _375  and  _376
REMARK  138  A    between atoms: _375  and  _378
REMARK  139  A    between atoms: _378  and  _379
REMARK  140  A    between atoms: _382  and  _384
REMARK  141  A    between atoms: _384  and  _385
REMARK  142  A    between atoms: _384  and  _387
REMARK  143  A    between atoms: _387  and  _388
REMARK  144  A    between atoms: _391  and  _393
REMARK  145  A    between atoms: _393  and  _394
REMARK  146  A    between atoms: _393  and  _396
REMARK  147  A    between atoms: _398  and  _400
REMARK  148  A    between atoms: _400  and  _401
REMARK  149  A    between atoms: _400  and  _403
REMARK  150  A    between atoms: _406  and  _408
REMARK  151  A    between atoms: _408  and  _409
REMARK  152  A    between atoms: _408  and  _411
REMARK  153  A    between atoms: _411  and  _412
REMARK  154  A    between atoms: _422  and  _424
REMARK  155  A    between atoms: _424  and  _425
REMARK  156  A    between atoms: _424  and  _427
REMARK  157  A    between atoms: _427  and  _428
REMARK  158  A    between atoms: _433  and  _435
REMARK  159  A    between atoms: _435  and  _436
REMARK  160  A    between atoms: _435  and  _438
REMARK  161  A    between atoms: _438  and  _439
REMARK  162  A    between atoms: _439  and  _440
REMARK  163  A    between atoms: _440  and  _441
REMARK                            x       y       z     vdW  Elec       q    Type
REMARK                         _______ _______ _______ _____ _____    ______ ____
ROOT
ATOM      1  O   HOH     1      -0.384  14.190  16.380  0.00  0.00    +0.000 OA
ENDROOT
TORSDOF 0
REMARK  Name = ../refined-set-2016/3oy0/3oy0_pocket.pdb
REMARK  163 active torsions:
REMARK  status: ('A' for Active; 'I' for Inactive)
REMARK    1  A    between atoms: _1  and  _3
REMARK    2  A    between atoms: _3  and  _4
REMARK    3  A    between atoms: _3  and  _6
REMARK    4  A    between atoms: _6  and  _7
REMARK    5  A    between atoms: _17  and  _19
REMARK    6  A    between atoms: _19  and  _20
REMARK    7  A    between atoms: _19  and  _22
REMARK    8  A    between atoms: _22  and  _23
REMARK    9  A    between atoms: _28  and  _29
REMARK   10  A    between atoms: _31  and  _33
REMARK   11  A    between atoms: _33  and  _34
REMARK   12  A    between atoms: _33  and  _36
REMARK   13  A    between atoms: _36  and  _37
REMARK   14  A    between atoms: _40  and  _41
REMARK   15  A    between atoms: _46  and  _48
REMARK   16  A    between atoms: _48  and  _49
REMARK   17  A    between atoms: _48  and  _51
REMARK   18  A    between atoms: _51  and  _52
REMARK   19  A    between atoms: _55  and  _57
REMARK   20  A    between atoms: _57  and  _58
REMARK   21  A    between atoms: _57  and  _60
REMARK   22  A    between atoms: _60  and  _61
REMARK   23  A    between atoms: _66  and  _68
REMARK   24  A    between atoms: _68  and  _69
REMARK   25  A    between atoms: _68  and  _71
REMARK   26  A    between atoms: _71  and  _72
REMARK   27  A    between atoms: _77  and  _79
REMARK   28  A    between atoms: _79  and  _80
REMARK   29  A    between atoms: _83  and  _85
REMARK   30  A    between atoms: _85  and  _86
REMARK   31  A    between atoms: _85  and  _88
REMARK   32  A    between atoms: _88  and  _89
REMARK   33  A    between atoms: _94  and  _96
REMARK   34  A    between atoms: _96  and  _97
REMARK   35  A    between atoms: _96  and  _99
REMARK   36  A    between atoms: _99  and  _100
REMARK   37  A    between atoms: _100  and  _101
REMARK   38  A    between atoms: _104  and  _106
REMARK   39  A    between atoms: _106  and  _107
REMARK   40  A    between atoms: _106  and  _109
REMARK   41  A    between atoms: _109  and  _110
REMARK   42  A    between atoms: _113  and  _115
REMARK   43  A    between atoms: _115  and  _116
REMARK   44  A    between atoms: _115  and  _118
REMARK   45  A    between atoms: _118  and  _119
REMARK   46  A    between atoms: _119  and  _120
REMARK   47  A    between atoms: _125  and  _127
REMARK   48  A    between atoms: _127  and  _128
REMARK   49  A    between atoms: _127  and  _130
REMARK   50  A    between atoms: _130  and  _131
REMARK   51  A    between atoms: _137  and  _139
REMARK   52  A    between atoms: _150  and  _153
REMARK   53  A    between atoms: _153  and  _154
REMARK   54  A    between atoms: _162  and  _163
REMARK   55  A    between atoms: _171  and  _173
REMARK   56  A    between atoms: _173  and  _174
REMARK   57  A    between atoms: _173  and  _176
REMARK   58  A    between atoms: _176  and  _177
REMARK   59  A    between atoms: _177  and  _178
REMARK   60  A    between atoms: _181  and  _183
REMARK   61  A    between atoms: _183  and  _184
REMARK   62  A    between atoms: _183  and  _186
REMARK   63  A    between atoms: _186  and  _187
REMARK   64  A    between atoms: _192  and  _194
REMARK   65  A    between atoms: _194  and  _195
REMARK   66  A    between atoms: _194  and  _197
REMARK   67  A    between atoms: _197  and  _198
REMARK   68  A    between atoms: _198  and  _199
REMARK   69  A    between atoms: _202  and  _204
REMARK   70  A    between atoms: _204  and  _205
REMARK   71  A    between atoms: _204  and  _207
REMARK   72  A    between atoms: _207  and  _208
REMARK   73  A    between atoms: _211  and  _213
REMARK   74  A    between atoms: _213  and  _214
REMARK   75  A    between atoms: _213  and  _216
REMARK   76  A    between atoms: _216  and  _217
REMARK   77  A    between atoms: _218  and  ZN_450
REMARK   78  A    between atoms: _222  and  _224
REMARK   79  A    between atoms: _224  and  _225
REMARK   80  A    between atoms: _224  and  _227
REMARK   81  A    between atoms: _227  and  _228
REMARK   82  A    between atoms: _231  and  _233
REMARK   83  A    between atoms: _233  and  _234
REMARK   84  A    between atoms: _233  and  _236
REMARK   85  A    between atoms: _239  and  _241
REMARK   86  A    between atoms: _241  and  _242
REMARK   87  A    between atoms: _241  and  _244
REMARK   88  A    between atoms: _244  and  _245
REMARK   89  A    between atoms: _250  and  _252
REMARK   90  A    between atoms: _252  and  _253
REMARK   91  A    between atoms: _252  and  _255
REMARK   92  A    between atoms: _255  and  _256
REMARK   93  A    between atoms: _262  and  _264
REMARK   94  A    between atoms: _264  and  _265
REMARK   95  A    between atoms: _267  and  _269
REMARK   96  A    between atoms: _269  and  _270
REMARK   97  A    between atoms: _269  and  _272
REMARK   98  A    between atoms: _275  and  _277
REMARK   99  A    between atoms: _277  and  _278
REMARK  100  A    between atoms: _277  and  _280
REMARK  101  A    between atoms: _280  and  _281
REMARK  102  A    between atoms: _281  and  _282
REMARK  103  A    between atoms: _287  and  _289
REMARK  104  A    between atoms: _289  and  _290
REMARK  105  A    between atoms: _289  and  _292
REMARK  106  A    between atoms: _292  and  _293
REMARK  107  A    between atoms: _296  and  _298
REMARK  108  A    between atoms: _298  and  _299
REMARK  109  A    between atoms: _302  and  _304
REMARK  110  A    between atoms: _304  and  _305
REMARK  111  A    between atoms: _304  and  _307
REMARK  112  A    between atoms: _310  and  _312
REMARK  113  A    between atoms: _312  and  _313
REMARK  114  A    between atoms: _312  and  _315
REMARK  115  A    between atoms: _315  and  _316
REMARK  116  A    between atoms: _319  and  _321
REMARK  117  A    between atoms: _321  and  _322
REMARK  118  A    between atoms: _324  and  _326
REMARK  119  A    between atoms: _326  and  _327
REMARK  120  A    between atoms: _326  and  _329
REMARK  121  A    between atoms: _329  and  _330
REMARK  122  A    between atoms: _332  and  _334
REMARK  123  A    between atoms: _334  and  _335
REMARK  124  A    between atoms: _334  and  _337
REMARK  125  A    between atoms: _337  and  _338
REMARK  126  A    between atoms: _341  and  _343
REMARK  127  A    between atoms: _343  and  _344
REMARK  128  A    between atoms: _343  and  _346
REMARK  129  A    between atoms: _346  and  _347
REMARK  130  A    between atoms: _350  and  _352
REMARK  131  A    between atoms: _352  and  _353
REMARK  132  A    between atoms: _352  and  _355
REMARK  133  A    between atoms: _355  and  _356
REMARK  134  A    between atoms: _360  and  _361
REMARK  135  A    between atoms: _367  and  _368
REMARK  136  A    between atoms: _373  and  _375
REMARK  137  A    between atoms: _375  and  _376
REMARK  138  A    between atoms: _375  and  _378
REMARK  139  A    between atoms: _378  and  _379
REMARK  140  A    between atoms: _382  and  _384
REMARK  141  A    between atoms: _384  and  _385
REMARK  142  A    between atoms: _384  and  _387
REMARK  143  A    between atoms: _387  and  _388
REMARK  144  A    between atoms: _391  and  _393
REMARK  145  A    between atoms: _393  and  _394
REMARK  146  A    between atoms: _393  and  _396
REMARK  147  A    between atoms: _398  and  _400
REMARK  148  A    between atoms: _400  and  _401
REMARK  149  A    between atoms: _400  and  _403
REMARK  150  A    between atoms: _406  and  _408
REMARK  151  A    between atoms: _408  and  _409
REMARK  152  A    between atoms: _408  and  _411
REMARK  153  A    between atoms: _411  and  _412
REMARK  154  A    between atoms: _422  and  _424
REMARK  155  A    between atoms: _424  and  _425
REMARK  156  A    between atoms: _424  and  _427
REMARK  157  A    between atoms: _427  and  _428
REMARK  158  A    between atoms: _433  and  _435
REMARK  159  A    between atoms: _435  and  _436
REMARK  160  A    between atoms: _435  and  _438
REMARK  161  A    between atoms: _438  and  _439
REMARK  162  A    between atoms: _439  and  _440
REMARK  163  A    between atoms: _440  and  _441
REMARK                            x       y       z     vdW  Elec       q    Type
REMARK                         _______ _______ _______ _____ _____    ______ ____
ROOT
ATOM      1  O   HOH     1       0.024   3.747  10.521  0.00  0.00    +0.000 OA
ENDROOT
TORSDOF 0
REMARK  Name = ../refined-set-2016/3oy0/3oy0_pocket.pdb
REMARK  163 active torsions:
REMARK  status: ('A' for Active; 'I' for Inactive)
REMARK    1  A    between atoms: _1  and  _3
REMARK    2  A    between atoms: _3  and  _4
REMARK    3  A    between atoms: _3  and  _6
REMARK    4  A    between atoms: _6  and  _7
REMARK    5  A    between atoms: _17  and  _19
REMARK    6  A    between atoms: _19  and  _20
REMARK    7  A    between atoms: _19  and  _22
REMARK    8  A    between atoms: _22  and  _23
REMARK    9  A    between atoms: _28  and  _29
REMARK   10  A    between atoms: _31  and  _33
REMARK   11  A    between atoms: _33  and  _34
REMARK   12  A    between atoms: _33  and  _36
REMARK   13  A    between atoms: _36  and  _37
REMARK   14  A    between atoms: _40  and  _41
REMARK   15  A    between atoms: _46  and  _48
REMARK   16  A    between atoms: _48  and  _49
REMARK   17  A    between atoms: _48  and  _51
REMARK   18  A    between atoms: _51  and  _52
REMARK   19  A    between atoms: _55  and  _57
REMARK   20  A    between atoms: _57  and  _58
REMARK   21  A    between atoms: _57  and  _60
REMARK   22  A    between atoms: _60  and  _61
REMARK   23  A    between atoms: _66  and  _68
REMARK   24  A    between atoms: _68  and  _69
REMARK   25  A    between atoms: _68  and  _71
REMARK   26  A    between atoms: _71  and  _72
REMARK   27  A    between atoms: _77  and  _79
REMARK   28  A    between atoms: _79  and  _80
REMARK   29  A    between atoms: _83  and  _85
REMARK   30  A    between atoms: _85  and  _86
REMARK   31  A    between atoms: _85  and  _88
REMARK   32  A    between atoms: _88  and  _89
REMARK   33  A    between atoms: _94  and  _96
REMARK   34  A    between atoms: _96  and  _97
REMARK   35  A    between atoms: _96  and  _99
REMARK   36  A    between atoms: _99  and  _100
REMARK   37  A    between atoms: _100  and  _101
REMARK   38  A    between atoms: _104  and  _106
REMARK   39  A    between atoms: _106  and  _107
REMARK   40  A    between atoms: _106  and  _109
REMARK   41  A    between atoms: _109  and  _110
REMARK   42  A    between atoms: _113  and  _115
REMARK   43  A    between atoms: _115  and  _116
REMARK   44  A    between atoms: _115  and  _118
REMARK   45  A    between atoms: _118  and  _119
REMARK   46  A    between atoms: _119  and  _120
REMARK   47  A    between atoms: _125  and  _127
REMARK   48  A    between atoms: _127  and  _128
REMARK   49  A    between atoms: _127  and  _130
REMARK   50  A    between atoms: _130  and  _131
REMARK   51  A    between atoms: _137  and  _139
REMARK   52  A    between atoms: _150  and  _153
REMARK   53  A    between atoms: _153  and  _154
REMARK   54  A    between atoms: _162  and  _163
REMARK   55  A    between atoms: _171  and  _173
REMARK   56  A    between atoms: _173  and  _174
REMARK   57  A    between atoms: _173  and  _176
REMARK   58  A    between atoms: _176  and  _177
REMARK   59  A    between atoms: _177  and  _178
REMARK   60  A    between atoms: _181  and  _183
REMARK   61  A    between atoms: _183  and  _184
REMARK   62  A    between atoms: _183  and  _186
REMARK   63  A    between atoms: _186  and  _187
REMARK   64  A    between atoms: _192  and  _194
REMARK   65  A    between atoms: _194  and  _195
REMARK   66  A    between atoms: _194  and  _197
REMARK   67  A    between atoms: _197  and  _198
REMARK   68  A    between atoms: _198  and  _199
REMARK   69  A    between atoms: _202  and  _204
REMARK   70  A    between atoms: _204  and  _205
REMARK   71  A    between atoms: _204  and  _207
REMARK   72  A    between atoms: _207  and  _208
REMARK   73  A    between atoms: _211  and  _213
REMARK   74  A    between atoms: _213  and  _214
REMARK   75  A    between atoms: _213  and  _216
REMARK   76  A    between atoms: _216  and  _217
REMARK   77  A    between atoms: _218  and  ZN_450
REMARK   78  A    between atoms: _222  and  _224
REMARK   79  A    between atoms: _224  and  _225
REMARK   80  A    between atoms: _224  and  _227
REMARK   81  A    between atoms: _227  and  _228
REMARK   82  A    between atoms: _231  and  _233
REMARK   83  A    between atoms: _233  and  _234
REMARK   84  A    between atoms: _233  and  _236
REMARK   85  A    between atoms: _239  and  _241
REMARK   86  A    between atoms: _241  and  _242
REMARK   87  A    between atoms: _241  and  _244
REMARK   88  A    between atoms: _244  and  _245
REMARK   89  A    between atoms: _250  and  _252
REMARK   90  A    between atoms: _252  and  _253
REMARK   91  A    between atoms: _252  and  _255
REMARK   92  A    between atoms: _255  and  _256
REMARK   93  A    between atoms: _262  and  _264
REMARK   94  A    between atoms: _264  and  _265
REMARK   95  A    between atoms: _267  and  _269
REMARK   96  A    between atoms: _269  and  _270
REMARK   97  A    between atoms: _269  and  _272
REMARK   98  A    between atoms: _275  and  _277
REMARK   99  A    between atoms: _277  and  _278
REMARK  100  A    between atoms: _277  and  _280
REMARK  101  A    between atoms: _280  and  _281
REMARK  102  A    between atoms: _281  and  _282
REMARK  103  A    between atoms: _287  and  _289
REMARK  104  A    between atoms: _289  and  _290
REMARK  105  A    between atoms: _289  and  _292
REMARK  106  A    between atoms: _292  and  _293
REMARK  107  A    between atoms: _296  and  _298
REMARK  108  A    between atoms: _298  and  _299
REMARK  109  A    between atoms: _302  and  _304
REMARK  110  A    between atoms: _304  and  _305
REMARK  111  A    between atoms: _304  and  _307
REMARK  112  A    between atoms: _310  and  _312
REMARK  113  A    between atoms: _312  and  _313
REMARK  114  A    between atoms: _312  and  _315
REMARK  115  A    between atoms: _315  and  _316
REMARK  116  A    between atoms: _319  and  _321
REMARK  117  A    between atoms: _321  and  _322
REMARK  118  A    between atoms: _324  and  _326
REMARK  119  A    between atoms: _326  and  _327
REMARK  120  A    between atoms: _326  and  _329
REMARK  121  A    between atoms: _329  and  _330
REMARK  122  A    between atoms: _332  and  _334
REMARK  123  A    between atoms: _334  and  _335
REMARK  124  A    between atoms: _334  and  _337
REMARK  125  A    between atoms: _337  and  _338
REMARK  126  A    between atoms: _341  and  _343
REMARK  127  A    between atoms: _343  and  _344
REMARK  128  A    between atoms: _343  and  _346
REMARK  129  A    between atoms: _346  and  _347
REMARK  130  A    between atoms: _350  and  _352
REMARK  131  A    between atoms: _352  and  _353
REMARK  132  A    between atoms: _352  and  _355
REMARK  133  A    between atoms: _355  and  _356
REMARK  134  A    between atoms: _360  and  _361
REMARK  135  A    between atoms: _367  and  _368
REMARK  136  A    between atoms: _373  and  _375
REMARK  137  A    between atoms: _375  and  _376
REMARK  138  A    between atoms: _375  and  _378
REMARK  139  A    between atoms: _378  and  _379
REMARK  140  A    between atoms: _382  and  _384
REMARK  141  A    between atoms: _384  and  _385
REMARK  142  A    between atoms: _384  and  _387
REMARK  143  A    between atoms: _387  and  _388
REMARK  144  A    between atoms: _391  and  _393
REMARK  145  A    between atoms: _393  and  _394
REMARK  146  A    between atoms: _393  and  _396
REMARK  147  A    between atoms: _398  and  _400
REMARK  148  A    between atoms: _400  and  _401
REMARK  149  A    between atoms: _400  and  _403
REMARK  150  A    between atoms: _406  and  _408
REMARK  151  A    between atoms: _408  and  _409
REMARK  152  A    between atoms: _408  and  _411
REMARK  153  A    between atoms: _411  and  _412
REMARK  154  A    between atoms: _422  and  _424
REMARK  155  A    between atoms: _424  and  _425
REMARK  156  A    between atoms: _424  and  _427
REMARK  157  A    between atoms: _427  and  _428
REMARK  158  A    between atoms: _433  and  _435
REMARK  159  A    between atoms: _435  and  _436
REMARK  160  A    between atoms: _435  and  _438
REMARK  161  A    between atoms: _438  and  _439
REMARK  162  A    between atoms: _439  and  _440
REMARK  163  A    between atoms: _440  and  _441
REMARK                            x       y       z     vdW  Elec       q    Type
REMARK                         _______ _______ _______ _____ _____    ______ ____
ROOT
ATOM      1  O   HOH     1      -2.602  -3.061  11.513  0.00  0.00    +0.000 OA
ENDROOT
TORSDOF 0
