REMARK  Name = ../refined-set-2016/1izh/1izh_pocket.pdb
REMARK  225 active torsions:
REMARK  status: ('A' for Active; 'I' for Inactive)
REMARK    1  A    between atoms: _1  and  _3
REMARK    2  A    between atoms: _3  and  _4
REMARK    3  A    between atoms: _3  and  _6
REMARK    4  A    between atoms: _6  and  _7
REMARK    5  A    between atoms: _7  and  _8
REMARK    6  A    between atoms: _8  and  _9
REMARK    7  A    between atoms: _18  and  _20
REMARK    8  A    between atoms: _20  and  _21
REMARK    9  A    between atoms: _20  and  _23
REMARK   10  A    between atoms: _23  and  _24
REMARK   11  A    between atoms: _27  and  _29
REMARK   12  A    between atoms: _29  and  _30
REMARK   13  A    between atoms: _29  and  _32
REMARK   14  A    between atoms: _32  and  _33
REMARK   15  A    between atoms: _36  and  _38
REMARK   16  A    between atoms: _38  and  _39
REMARK   17  A    between atoms: _38  and  _41
REMARK   18  A    between atoms: _41  and  _42
REMARK   19  A    between atoms: _45  and  _47
REMARK   20  A    between atoms: _47  and  _48
REMARK   21  A    between atoms: _47  and  _50
REMARK   22  A    between atoms: _50  and  _51
REMARK   23  A    between atoms: _54  and  _56
REMARK   24  A    between atoms: _56  and  _57
REMARK   25  A    between atoms: _59  and  _61
REMARK   26  A    between atoms: _61  and  _62
REMARK   27  A    between atoms: _65  and  _67
REMARK   28  A    between atoms: _67  and  _68
REMARK   29  A    between atoms: _67  and  _70
REMARK   30  A    between atoms: _70  and  _71
REMARK   31  A    between atoms: _74  and  _76
REMARK   32  A    between atoms: _76  and  _77
REMARK   33  A    between atoms: _76  and  _79
REMARK   34  A    between atoms: _79  and  _80
REMARK   35  A    between atoms: _83  and  _85
REMARK   36  A    between atoms: _85  and  _86
REMARK   37  A    between atoms: _85  and  _88
REMARK   38  A    between atoms: _88  and  _89
REMARK   39  A    between atoms: _92  and  _94
REMARK   40  A    between atoms: _94  and  _95
REMARK   41  A    between atoms: _94  and  _97
REMARK   42  A    between atoms: _100  and  _102
REMARK   43  A    between atoms: _102  and  _103
REMARK   44  A    between atoms: _102  and  _105
REMARK   45  A    between atoms: _105  and  _106
REMARK   46  A    between atoms: _106  and  _107
REMARK   47  A    between atoms: _109  and  _111
REMARK   48  A    between atoms: _111  and  _112
REMARK   49  A    between atoms: _111  and  _114
REMARK   50  A    between atoms: _114  and  _115
REMARK   51  A    between atoms: _118  and  _120
REMARK   52  A    between atoms: _120  and  _121
REMARK   53  A    between atoms: _123  and  _125
REMARK   54  A    between atoms: _125  and  _126
REMARK   55  A    between atoms: _128  and  _130
REMARK   56  A    between atoms: _130  and  _131
REMARK   57  A    between atoms: _130  and  _133
REMARK   58  A    between atoms: _133  and  _134
REMARK   59  A    between atoms: _137  and  _139
REMARK   60  A    between atoms: _139  and  _140
REMARK   61  A    between atoms: _142  and  _144
REMARK   62  A    between atoms: _144  and  _145
REMARK   63  A    between atoms: _147  and  _149
REMARK   64  A    between atoms: _149  and  _150
REMARK   65  A    between atoms: _149  and  _152
REMARK   66  A    between atoms: _152  and  _153
REMARK   67  A    between atoms: _159  and  _161
REMARK   68  A    between atoms: _161  and  _162
REMARK   69  A    between atoms: _161  and  _164
REMARK   70  A    between atoms: _164  and  _165
REMARK   71  A    between atoms: _168  and  _170
REMARK   72  A    between atoms: _170  and  _171
REMARK   73  A    between atoms: _170  and  _173
REMARK   74  A    between atoms: _176  and  _178
REMARK   75  A    between atoms: _178  and  _179
REMARK   76  A    between atoms: _178  and  _181
REMARK   77  A    between atoms: _181  and  _182
REMARK   78  A    between atoms: _186  and  _187
REMARK   79  A    between atoms: _192  and  _194
REMARK   80  A    between atoms: _194  and  _195
REMARK   81  A    between atoms: _194  and  _197
REMARK   82  A    between atoms: _197  and  _198
REMARK   83  A    between atoms: _202  and  _203
REMARK   84  A    between atoms: _208  and  _210
REMARK   85  A    between atoms: _210  and  _211
REMARK   86  A    between atoms: _210  and  _213
REMARK   87  A    between atoms: _216  and  _218
REMARK   88  A    between atoms: _218  and  _219
REMARK   89  A    between atoms: _218  and  _221
REMARK   90  A    between atoms: _221  and  _222
REMARK   91  A    between atoms: _227  and  _229
REMARK   92  A    between atoms: _229  and  _230
REMARK   93  A    between atoms: _229  and  _232
REMARK   94  A    between atoms: _232  and  _233
REMARK   95  A    between atoms: _236  and  _238
REMARK   96  A    between atoms: _238  and  _239
REMARK   97  A    between atoms: _238  and  _241
REMARK   98  A    between atoms: _241  and  _242
REMARK   99  A    between atoms: _245  and  _247
REMARK  100  A    between atoms: _247  and  _248
REMARK  101  A    between atoms: _250  and  _252
REMARK  102  A    between atoms: _252  and  _253
REMARK  103  A    between atoms: _252  and  _255
REMARK  104  A    between atoms: _255  and  _256
REMARK  105  A    between atoms: _256  and  _257
REMARK  106  A    between atoms: _257  and  _258
REMARK  107  A    between atoms: _267  and  _269
REMARK  108  A    between atoms: _269  and  _270
REMARK  109  A    between atoms: _269  and  _272
REMARK  110  A    between atoms: _272  and  _273
REMARK  111  A    between atoms: _278  and  _280
REMARK  112  A    between atoms: _280  and  _281
REMARK  113  A    between atoms: _280  and  _283
REMARK  114  A    between atoms: _283  and  _284
REMARK  115  A    between atoms: _284  and  _285
REMARK  116  A    between atoms: _285  and  _286
REMARK  117  A    between atoms: _295  and  _297
REMARK  118  A    between atoms: _297  and  _298
REMARK  119  A    between atoms: _297  and  _300
REMARK  120  A    between atoms: _300  and  _301
REMARK  121  A    between atoms: _304  and  _306
REMARK  122  A    between atoms: _306  and  _307
REMARK  123  A    between atoms: _306  and  _309
REMARK  124  A    between atoms: _309  and  _310
REMARK  125  A    between atoms: _313  and  _315
REMARK  126  A    between atoms: _315  and  _316
REMARK  127  A    between atoms: _315  and  _318
REMARK  128  A    between atoms: _318  and  _319
REMARK  129  A    between atoms: _322  and  _324
REMARK  130  A    between atoms: _324  and  _325
REMARK  131  A    between atoms: _324  and  _327
REMARK  132  A    between atoms: _327  and  _328
REMARK  133  A    between atoms: _331  and  _333
REMARK  134  A    between atoms: _333  and  _334
REMARK  135  A    between atoms: _336  and  _338
REMARK  136  A    between atoms: _338  and  _339
REMARK  137  A    between atoms: _342  and  _344
REMARK  138  A    between atoms: _344  and  _345
REMARK  139  A    between atoms: _344  and  _347
REMARK  140  A    between atoms: _347  and  _348
REMARK  141  A    between atoms: _351  and  _353
REMARK  142  A    between atoms: _353  and  _354
REMARK  143  A    between atoms: _353  and  _356
REMARK  144  A    between atoms: _356  and  _357
REMARK  145  A    between atoms: _360  and  _362
REMARK  146  A    between atoms: _362  and  _363
REMARK  147  A    between atoms: _362  and  _365
REMARK  148  A    between atoms: _365  and  _366
REMARK  149  A    between atoms: _369  and  _371
REMARK  150  A    between atoms: _371  and  _372
REMARK  151  A    between atoms: _371  and  _374
REMARK  152  A    between atoms: _377  and  _379
REMARK  153  A    between atoms: _379  and  _380
REMARK  154  A    between atoms: _379  and  _382
REMARK  155  A    between atoms: _383  and  _384
REMARK  156  A    between atoms: _384  and  _385
REMARK  157  A    between atoms: _385  and  _386
REMARK  158  A    between atoms: _390  and  _392
REMARK  159  A    between atoms: _392  and  _393
REMARK  160  A    between atoms: _392  and  _395
REMARK  161  A    between atoms: _395  and  _396
REMARK  162  A    between atoms: _396  and  _397
REMARK  163  A    between atoms: _399  and  _401
REMARK  164  A    between atoms: _401  and  _402
REMARK  165  A    between atoms: _401  and  _404
REMARK  166  A    between atoms: _404  and  _405
REMARK  167  A    between atoms: _408  and  _410
REMARK  168  A    between atoms: _410  and  _411
REMARK  169  A    between atoms: _413  and  _415
REMARK  170  A    between atoms: _415  and  _416
REMARK  171  A    between atoms: _418  and  _420
REMARK  172  A    between atoms: _420  and  _421
REMARK  173  A    between atoms: _420  and  _423
REMARK  174  A    between atoms: _423  and  _424
REMARK  175  A    between atoms: _427  and  _429
REMARK  176  A    between atoms: _429  and  _430
REMARK  177  A    between atoms: _432  and  _434
REMARK  178  A    between atoms: _434  and  _435
REMARK  179  A    between atoms: _437  and  _439
REMARK  180  A    between atoms: _439  and  _440
REMARK  181  A    between atoms: _439  and  _442
REMARK  182  A    between atoms: _442  and  _443
REMARK  183  A    between atoms: _449  and  _451
REMARK  184  A    between atoms: _451  and  _452
REMARK  185  A    between atoms: _451  and  _454
REMARK  186  A    between atoms: _454  and  _455
REMARK  187  A    between atoms: _458  and  _460
REMARK  188  A    between atoms: _460  and  _461
REMARK  189  A    between atoms: _460  and  _463
REMARK  190  A    between atoms: _466  and  _468
REMARK  191  A    between atoms: _468  and  _469
REMARK  192  A    between atoms: _468  and  _471
REMARK  193  A    between atoms: _471  and  _472
REMARK  194  A    between atoms: _475  and  _477
REMARK  195  A    between atoms: _477  and  _478
REMARK  196  A    between atoms: _477  and  _480
REMARK  197  A    between atoms: _480  and  _481
REMARK  198  A    between atoms: _485  and  _486
REMARK  199  A    between atoms: _491  and  _493
REMARK  200  A    between atoms: _493  and  _494
REMARK  201  A    between atoms: _493  and  _496
REMARK  202  A    between atoms: _499  and  _501
REMARK  203  A    between atoms: _501  and  _502
REMARK  204  A    between atoms: _501  and  _504
REMARK  205  A    between atoms: _504  and  _505
REMARK  206  A    between atoms: _510  and  _512
REMARK  207  A    between atoms: _512  and  _513
REMARK  208  A    between atoms: _512  and  _515
REMARK  209  A    between atoms: _515  and  _516
REMARK  210  A    between atoms: _519  and  _521
REMARK  211  A    between atoms: _521  and  _522
REMARK  212  A    between atoms: _521  and  _524
REMARK  213  A    between atoms: _524  and  _525
REMARK  214  A    between atoms: _528  and  _530
REMARK  215  A    between atoms: _530  and  _531
REMARK  216  A    between atoms: _533  and  _535
REMARK  217  A    between atoms: _535  and  _536
REMARK  218  A    between atoms: _535  and  _538
REMARK  219  A    between atoms: _538  and  _539
REMARK  220  A    between atoms: _539  and  _540
REMARK  221  A    between atoms: _540  and  _541
REMARK  222  A    between atoms: _550  and  _552
REMARK  223  A    between atoms: _552  and  _553
REMARK  224  A    between atoms: _552  and  _555
REMARK  225  A    between atoms: _555  and  _556
REMARK                            x       y       z     vdW  Elec       q    Type
REMARK                         _______ _______ _______ _____ _____    ______ ____
ROOT
ATOM      1  NE  ARG A   1      22.591  20.660   7.921  0.00  0.00    -0.265 N 
ATOM      2  CZ  ARG A   1      21.661  20.104   8.714  0.00  0.00    +0.342 C 
ATOM      3  NH2 ARG A   1      21.484  20.505   9.975  0.00  0.00    -0.292 N 
ATOM      4 HH21 ARG A   1      20.756  20.056  10.566  0.00  0.00    +0.255 HD
ATOM      5 HH22 ARG A   1      22.074  21.267  10.366  0.00  0.00    +0.255 HD
ATOM      6  NH1 ARG A   1      20.901  19.128   8.254  0.00  0.00    -0.292 N 
ATOM      7 HH11 ARG A   1      20.180  18.697   8.868  0.00  0.00    +0.255 HD
ATOM      8 HH12 ARG A   1      21.023  18.790   7.278  0.00  0.00    +0.255 HD
ATOM      9  HE  ARG A   1      22.715  20.277   6.962  0.00  0.00    +0.259 HD
ENDROOT
BRANCH   1  10
ATOM     10  CD  ARG A   1      23.437  21.776   8.337  0.00  0.00    +0.174 C 
BRANCH  10  11
ATOM     11  CG  ARG A   1      24.018  22.500   7.214  0.00  0.00    +0.044 C 
BRANCH  11  12
ATOM     12  CB  ARG A   1      24.645  23.801   7.614  0.00  0.00    +0.023 C 
BRANCH  12  13
ATOM     13  CA  ARG A   1      25.272  24.548   6.471  0.00  0.00    +0.102 C 
BRANCH  13  14
ATOM     14  N   ARG A   1      26.495  23.891   6.023  0.00  0.00    -0.244 NA
ATOM     15  H   ARG A   1      26.776  22.985   6.449  0.00  0.00    +0.141 HD
ENDBRANCH  13  14
BRANCH  13  16
ATOM     16  C   ARG A   1      25.605  25.968   6.945  0.00  0.00    +0.199 C 
ATOM     17  O   ARG A   1      26.637  26.186   7.703  0.00  0.00    -0.219 OA
ENDBRANCH  13  16
ENDBRANCH  12  13
ENDBRANCH  11  12
ENDBRANCH  10  11
ENDBRANCH   1  10
TORSDOF 6
REMARK  Name = ../refined-set-2016/1izh/1izh_pocket.pdb
REMARK  225 active torsions:
REMARK  status: ('A' for Active; 'I' for Inactive)
REMARK    1  A    between atoms: _1  and  _3
REMARK    2  A    between atoms: _3  and  _4
REMARK    3  A    between atoms: _3  and  _6
REMARK    4  A    between atoms: _6  and  _7
REMARK    5  A    between atoms: _7  and  _8
REMARK    6  A    between atoms: _8  and  _9
REMARK    7  A    between atoms: _18  and  _20
REMARK    8  A    between atoms: _20  and  _21
REMARK    9  A    between atoms: _20  and  _23
REMARK   10  A    between atoms: _23  and  _24
REMARK   11  A    between atoms: _27  and  _29
REMARK   12  A    between atoms: _29  and  _30
REMARK   13  A    between atoms: _29  and  _32
REMARK   14  A    between atoms: _32  and  _33
REMARK   15  A    between atoms: _36  and  _38
REMARK   16  A    between atoms: _38  and  _39
REMARK   17  A    between atoms: _38  and  _41
REMARK   18  A    between atoms: _41  and  _42
REMARK   19  A    between atoms: _45  and  _47
REMARK   20  A    between atoms: _47  and  _48
REMARK   21  A    between atoms: _47  and  _50
REMARK   22  A    between atoms: _50  and  _51
REMARK   23  A    between atoms: _54  and  _56
REMARK   24  A    between atoms: _56  and  _57
REMARK   25  A    between atoms: _59  and  _61
REMARK   26  A    between atoms: _61  and  _62
REMARK   27  A    between atoms: _65  and  _67
REMARK   28  A    between atoms: _67  and  _68
REMARK   29  A    between atoms: _67  and  _70
REMARK   30  A    between atoms: _70  and  _71
REMARK   31  A    between atoms: _74  and  _76
REMARK   32  A    between atoms: _76  and  _77
REMARK   33  A    between atoms: _76  and  _79
REMARK   34  A    between atoms: _79  and  _80
REMARK   35  A    between atoms: _83  and  _85
REMARK   36  A    between atoms: _85  and  _86
REMARK   37  A    between atoms: _85  and  _88
REMARK   38  A    between atoms: _88  and  _89
REMARK   39  A    between atoms: _92  and  _94
REMARK   40  A    between atoms: _94  and  _95
REMARK   41  A    between atoms: _94  and  _97
REMARK   42  A    between atoms: _100  and  _102
REMARK   43  A    between atoms: _102  and  _103
REMARK   44  A    between atoms: _102  and  _105
REMARK   45  A    between atoms: _105  and  _106
REMARK   46  A    between atoms: _106  and  _107
REMARK   47  A    between atoms: _109  and  _111
REMARK   48  A    between atoms: _111  and  _112
REMARK   49  A    between atoms: _111  and  _114
REMARK   50  A    between atoms: _114  and  _115
REMARK   51  A    between atoms: _118  and  _120
REMARK   52  A    between atoms: _120  and  _121
REMARK   53  A    between atoms: _123  and  _125
REMARK   54  A    between atoms: _125  and  _126
REMARK   55  A    between atoms: _128  and  _130
REMARK   56  A    between atoms: _130  and  _131
REMARK   57  A    between atoms: _130  and  _133
REMARK   58  A    between atoms: _133  and  _134
REMARK   59  A    between atoms: _137  and  _139
REMARK   60  A    between atoms: _139  and  _140
REMARK   61  A    between atoms: _142  and  _144
REMARK   62  A    between atoms: _144  and  _145
REMARK   63  A    between atoms: _147  and  _149
REMARK   64  A    between atoms: _149  and  _150
REMARK   65  A    between atoms: _149  and  _152
REMARK   66  A    between atoms: _152  and  _153
REMARK   67  A    between atoms: _159  and  _161
REMARK   68  A    between atoms: _161  and  _162
REMARK   69  A    between atoms: _161  and  _164
REMARK   70  A    between atoms: _164  and  _165
REMARK   71  A    between atoms: _168  and  _170
REMARK   72  A    between atoms: _170  and  _171
REMARK   73  A    between atoms: _170  and  _173
REMARK   74  A    between atoms: _176  and  _178
REMARK   75  A    between atoms: _178  and  _179
REMARK   76  A    between atoms: _178  and  _181
REMARK   77  A    between atoms: _181  and  _182
REMARK   78  A    between atoms: _186  and  _187
REMARK   79  A    between atoms: _192  and  _194
REMARK   80  A    between atoms: _194  and  _195
REMARK   81  A    between atoms: _194  and  _197
REMARK   82  A    between atoms: _197  and  _198
REMARK   83  A    between atoms: _202  and  _203
REMARK   84  A    between atoms: _208  and  _210
REMARK   85  A    between atoms: _210  and  _211
REMARK   86  A    between atoms: _210  and  _213
REMARK   87  A    between atoms: _216  and  _218
REMARK   88  A    between atoms: _218  and  _219
REMARK   89  A    between atoms: _218  and  _221
REMARK   90  A    between atoms: _221  and  _222
REMARK   91  A    between atoms: _227  and  _229
REMARK   92  A    between atoms: _229  and  _230
REMARK   93  A    between atoms: _229  and  _232
REMARK   94  A    between atoms: _232  and  _233
REMARK   95  A    between atoms: _236  and  _238
REMARK   96  A    between atoms: _238  and  _239
REMARK   97  A    between atoms: _238  and  _241
REMARK   98  A    between atoms: _241  and  _242
REMARK   99  A    between atoms: _245  and  _247
REMARK  100  A    between atoms: _247  and  _248
REMARK  101  A    between atoms: _250  and  _252
REMARK  102  A    between atoms: _252  and  _253
REMARK  103  A    between atoms: _252  and  _255
REMARK  104  A    between atoms: _255  and  _256
REMARK  105  A    between atoms: _256  and  _257
REMARK  106  A    between atoms: _257  and  _258
REMARK  107  A    between atoms: _267  and  _269
REMARK  108  A    between atoms: _269  and  _270
REMARK  109  A    between atoms: _269  and  _272
REMARK  110  A    between atoms: _272  and  _273
REMARK  111  A    between atoms: _278  and  _280
REMARK  112  A    between atoms: _280  and  _281
REMARK  113  A    between atoms: _280  and  _283
REMARK  114  A    between atoms: _283  and  _284
REMARK  115  A    between atoms: _284  and  _285
REMARK  116  A    between atoms: _285  and  _286
REMARK  117  A    between atoms: _295  and  _297
REMARK  118  A    between atoms: _297  and  _298
REMARK  119  A    between atoms: _297  and  _300
REMARK  120  A    between atoms: _300  and  _301
REMARK  121  A    between atoms: _304  and  _306
REMARK  122  A    between atoms: _306  and  _307
REMARK  123  A    between atoms: _306  and  _309
REMARK  124  A    between atoms: _309  and  _310
REMARK  125  A    between atoms: _313  and  _315
REMARK  126  A    between atoms: _315  and  _316
REMARK  127  A    between atoms: _315  and  _318
REMARK  128  A    between atoms: _318  and  _319
REMARK  129  A    between atoms: _322  and  _324
REMARK  130  A    between atoms: _324  and  _325
REMARK  131  A    between atoms: _324  and  _327
REMARK  132  A    between atoms: _327  and  _328
REMARK  133  A    between atoms: _331  and  _333
REMARK  134  A    between atoms: _333  and  _334
REMARK  135  A    between atoms: _336  and  _338
REMARK  136  A    between atoms: _338  and  _339
REMARK  137  A    between atoms: _342  and  _344
REMARK  138  A    between atoms: _344  and  _345
REMARK  139  A    between atoms: _344  and  _347
REMARK  140  A    between atoms: _347  and  _348
REMARK  141  A    between atoms: _351  and  _353
REMARK  142  A    between atoms: _353  and  _354
REMARK  143  A    between atoms: _353  and  _356
REMARK  144  A    between atoms: _356  and  _357
REMARK  145  A    between atoms: _360  and  _362
REMARK  146  A    between atoms: _362  and  _363
REMARK  147  A    between atoms: _362  and  _365
REMARK  148  A    between atoms: _365  and  _366
REMARK  149  A    between atoms: _369  and  _371
REMARK  150  A    between atoms: _371  and  _372
REMARK  151  A    between atoms: _371  and  _374
REMARK  152  A    between atoms: _377  and  _379
REMARK  153  A    between atoms: _379  and  _380
REMARK  154  A    between atoms: _379  and  _382
REMARK  155  A    between atoms: _383  and  _384
REMARK  156  A    between atoms: _384  and  _385
REMARK  157  A    between atoms: _385  and  _386
REMARK  158  A    between atoms: _390  and  _392
REMARK  159  A    between atoms: _392  and  _393
REMARK  160  A    between atoms: _392  and  _395
REMARK  161  A    between atoms: _395  and  _396
REMARK  162  A    between atoms: _396  and  _397
REMARK  163  A    between atoms: _399  and  _401
REMARK  164  A    between atoms: _401  and  _402
REMARK  165  A    between atoms: _401  and  _404
REMARK  166  A    between atoms: _404  and  _405
REMARK  167  A    between atoms: _408  and  _410
REMARK  168  A    between atoms: _410  and  _411
REMARK  169  A    between atoms: _413  and  _415
REMARK  170  A    between atoms: _415  and  _416
REMARK  171  A    between atoms: _418  and  _420
REMARK  172  A    between atoms: _420  and  _421
REMARK  173  A    between atoms: _420  and  _423
REMARK  174  A    between atoms: _423  and  _424
REMARK  175  A    between atoms: _427  and  _429
REMARK  176  A    between atoms: _429  and  _430
REMARK  177  A    between atoms: _432  and  _434
REMARK  178  A    between atoms: _434  and  _435
REMARK  179  A    between atoms: _437  and  _439
REMARK  180  A    between atoms: _439  and  _440
REMARK  181  A    between atoms: _439  and  _442
REMARK  182  A    between atoms: _442  and  _443
REMARK  183  A    between atoms: _449  and  _451
REMARK  184  A    between atoms: _451  and  _452
REMARK  185  A    between atoms: _451  and  _454
REMARK  186  A    between atoms: _454  and  _455
REMARK  187  A    between atoms: _458  and  _460
REMARK  188  A    between atoms: _460  and  _461
REMARK  189  A    between atoms: _460  and  _463
REMARK  190  A    between atoms: _466  and  _468
REMARK  191  A    between atoms: _468  and  _469
REMARK  192  A    between atoms: _468  and  _471
REMARK  193  A    between atoms: _471  and  _472
REMARK  194  A    between atoms: _475  and  _477
REMARK  195  A    between atoms: _477  and  _478
REMARK  196  A    between atoms: _477  and  _480
REMARK  197  A    between atoms: _480  and  _481
REMARK  198  A    between atoms: _485  and  _486
REMARK  199  A    between atoms: _491  and  _493
REMARK  200  A    between atoms: _493  and  _494
REMARK  201  A    between atoms: _493  and  _496
REMARK  202  A    between atoms: _499  and  _501
REMARK  203  A    between atoms: _501  and  _502
REMARK  204  A    between atoms: _501  and  _504
REMARK  205  A    between atoms: _504  and  _505
REMARK  206  A    between atoms: _510  and  _512
REMARK  207  A    between atoms: _512  and  _513
REMARK  208  A    between atoms: _512  and  _515
REMARK  209  A    between atoms: _515  and  _516
REMARK  210  A    between atoms: _519  and  _521
REMARK  211  A    between atoms: _521  and  _522
REMARK  212  A    between atoms: _521  and  _524
REMARK  213  A    between atoms: _524  and  _525
REMARK  214  A    between atoms: _528  and  _530
REMARK  215  A    between atoms: _530  and  _531
REMARK  216  A    between atoms: _533  and  _535
REMARK  217  A    between atoms: _535  and  _536
REMARK  218  A    between atoms: _535  and  _538
REMARK  219  A    between atoms: _538  and  _539
REMARK  220  A    between atoms: _539  and  _540
REMARK  221  A    between atoms: _540  and  _541
REMARK  222  A    between atoms: _550  and  _552
REMARK  223  A    between atoms: _552  and  _553
REMARK  224  A    between atoms: _552  and  _555
REMARK  225  A    between atoms: _555  and  _556
REMARK                            x       y       z     vdW  Elec       q    Type
REMARK                         _______ _______ _______ _____ _____    ______ ____
ROOT
ATOM      1  C   GLY A   5      12.345  27.986   3.592  0.00  0.00    +0.243 C 
ATOM      2  N   ALA A   6      12.654  28.715   4.664  0.00  0.00    -0.297 N 
ATOM      3  H   ALA A   6      13.577  29.194   4.686  0.00  0.00    +0.150 HD
ATOM      4  O   GLY A   5      11.325  27.263   3.520  0.00  0.00    -0.273 OA
ENDROOT
BRANCH   2   5
ATOM      5  CA  ALA A   6      11.759  28.876   5.814  0.00  0.00    +0.149 C 
ATOM      6  CB  ALA A   6      12.541  28.686   7.109  0.00  0.00    +0.031 C 
BRANCH   5   7
ATOM      7  C   ALA A   6      11.063  30.216   5.819  0.00  0.00    +0.241 C 
ATOM      8  N   ASP A   7       9.725  30.185   5.785  0.00  0.00    -0.297 N 
ATOM      9  H   ASP A   7       9.224  29.279   5.686  0.00  0.00    +0.150 HD
ATOM     10  O   ALA A   6      11.715  31.284   5.781  0.00  0.00    -0.273 OA
BRANCH   8  11
ATOM     11  CA  ASP A   7       8.975  31.435   5.888  0.00  0.00    +0.160 C 
BRANCH  11  12
ATOM     12  C   ASP A   7       9.218  32.129   7.234  0.00  0.00    +0.241 C 
ATOM     13  N   ASP A   8       9.340  31.311   8.292  0.00  0.00    -0.297 N 
ATOM     14  H   ASP A   8       9.428  30.290   8.114  0.00  0.00    +0.150 HD
ATOM     15  O   ASP A   7       9.254  33.370   7.328  0.00  0.00    -0.273 OA
BRANCH  13  16
ATOM     16  CA  ASP A   8       9.356  31.768   9.669  0.00  0.00    +0.160 C 
BRANCH  16  17
ATOM     17  C   ASP A   8      10.638  31.354  10.385  0.00  0.00    +0.241 C 
ATOM     18  N   THR A   9      10.819  31.954  11.527  0.00  0.00    -0.295 N 
ATOM     19  H   THR A   9      10.135  32.686  11.808  0.00  0.00    +0.150 HD
ATOM     20  O   ASP A   8      11.375  30.505   9.938  0.00  0.00    -0.273 OA
BRANCH  18  21
ATOM     21  CA  THR A   9      11.926  31.662  12.440  0.00  0.00    +0.176 C 
BRANCH  21  22
ATOM     22  C   THR A   9      11.415  30.754  13.516  0.00  0.00    +0.243 C 
ATOM     23  O   THR A   9      10.413  31.036  14.158  0.00  0.00    -0.273 OA
ATOM     24  N   VAL A  10      12.087  29.635  13.711  0.00  0.00    -0.298 N 
ATOM     25  H   VAL A  10      12.955  29.461  13.165  0.00  0.00    +0.150 HD
BRANCH  24  26
ATOM     26  CA  VAL A  10      11.645  28.652  14.662  0.00  0.00    +0.137 C 
BRANCH  26  27
ATOM     27  CB  VAL A  10      11.106  27.373  13.986  0.00  0.00    +0.026 C 
ATOM     28  CG2 VAL A  10      10.260  26.614  15.047  0.00  0.00    +0.002 C 
ATOM     29  CG1 VAL A  10      10.278  27.723  12.800  0.00  0.00    +0.002 C 
ENDBRANCH  26  27
BRANCH  26  30
ATOM     30  C   VAL A  10      12.794  28.199  15.510  0.00  0.00    +0.227 C 
ATOM     31  O   VAL A  10      13.802  27.752  14.957  0.00  0.00    -0.286 OA
ENDBRANCH  26  30
ENDBRANCH  24  26
ENDBRANCH  21  22
BRANCH  21  32
ATOM     32  CB  THR A   9      12.397  32.956  13.005  0.00  0.00    +0.137 C 
ATOM     33  CG2 THR A   9      13.486  32.779  14.021  0.00  0.00    +0.034 C 
BRANCH  32  34
ATOM     34  OG1 THR A   9      13.031  33.702  11.965  0.00  0.00    -0.382 OA
ATOM     35  HG1 THR A   9      12.382  33.868  11.236  0.00  0.00    +0.210 HD
ENDBRANCH  32  34
ENDBRANCH  21  32
ENDBRANCH  18  21
ENDBRANCH  16  17
BRANCH  16  36
ATOM     36  CB  ASP A   8       8.200  31.118  10.406  0.00  0.00    +0.143 C 
BRANCH  36  37
ATOM     37  CG  ASP A   8       6.886  31.354   9.714  0.00  0.00    +0.367 C 
ATOM     38  OD2 ASP A   8       6.112  30.438   9.485  0.00  0.00    -0.246 OA
ATOM     39  OD1 ASP A   8       6.558  32.479   9.361  0.00  0.00    -0.246 OA
ENDBRANCH  36  37
ENDBRANCH  16  36
ENDBRANCH  13  16
ENDBRANCH  11  12
BRANCH  11  40
ATOM     40  CB  ASP A   7       7.462  31.157   5.786  0.00  0.00    +0.143 C 
BRANCH  40  41
ATOM     41  CG  ASP A   7       7.035  30.697   4.406  0.00  0.00    +0.367 C 
ATOM     42  OD2 ASP A   7       5.938  30.093   4.338  0.00  0.00    -0.246 OA
ATOM     43  OD1 ASP A   7       7.757  30.802   3.392  0.00  0.00    -0.246 OA
ENDBRANCH  40  41
ENDBRANCH  11  40
ENDBRANCH   8  11
ENDBRANCH   5   7
ENDBRANCH   2   5
BRANCH   1  44
ATOM     44  CA  GLY A   5      13.378  27.971   2.490  0.00  0.00    +0.176 C 
BRANCH  44  46
ATOM     45  C   THR A   4      14.575  30.081   2.446  0.00  0.00    +0.243 C 
ATOM     46  N   GLY A   5      14.554  28.801   2.741  0.00  0.00    -0.295 N 
ATOM     47  H   GLY A   5      15.398  28.366   3.165  0.00  0.00    +0.150 HD
ATOM     48  O   THR A   4      13.660  30.671   1.841  0.00  0.00    -0.273 OA
BRANCH  45  49
ATOM     49  CA  THR A   4      15.833  30.868   2.833  0.00  0.00    +0.176 C 
BRANCH  49  52
ATOM     50  C   ASP A   3      16.223  30.054   5.065  0.00  0.00    +0.241 C 
ATOM     51  O   ASP A   3      15.100  30.378   5.443  0.00  0.00    -0.273 OA
ATOM     52  N   THR A   4      16.647  30.238   3.809  0.00  0.00    -0.295 N 
ATOM     53  H   THR A   4      17.597  29.911   3.542  0.00  0.00    +0.150 HD
BRANCH  50  54
ATOM     54  CA  ASP A   3      17.238  29.346   5.979  0.00  0.00    +0.160 C 
BRANCH  54  56
ATOM     55  C   LEU A   2      19.357  30.122   6.808  0.00  0.00    +0.241 C 
ATOM     56  N   ASP A   3      18.036  30.248   6.784  0.00  0.00    -0.297 N 
ATOM     57  H   ASP A   3      17.574  30.994   7.343  0.00  0.00    +0.150 HD
ATOM     58  O   LEU A   2      19.973  29.483   5.954  0.00  0.00    -0.273 OA
BRANCH  55  59
ATOM     59  CA  LEU A   2      20.100  30.872   7.919  0.00  0.00    +0.149 C 
BRANCH  59  62
ATOM     60  C   LEU A   1      19.946  29.130   9.662  0.00  0.00    +0.238 C 
ATOM     61  O   LEU A   1      18.775  29.404   9.887  0.00  0.00    -0.274 OA
ATOM     62  N   LEU A   2      20.696  29.846   8.807  0.00  0.00    -0.297 N 
ATOM     63  H   LEU A   2      21.721  29.676   8.767  0.00  0.00    +0.150 HD
BRANCH  60  64
ATOM     64  CA  LEU A   1      20.580  27.998  10.455  0.00  0.00    +0.145 C 
BRANCH  64  65
ATOM     65  N   LEU A   1      20.334  28.233  11.856  0.00  0.00    -0.238 NA
ATOM     66  H   LEU A   1      19.421  27.927  12.248  0.00  0.00    +0.142 HD
ENDBRANCH  64  65
BRANCH  64  67
ATOM     67  CB  LEU A   1      19.918  26.640  10.087  0.00  0.00    +0.026 C 
BRANCH  67  68
ATOM     68  CG  LEU A   1      20.015  26.173   8.657  0.00  0.00    +0.002 C 
ATOM     69  CD2 LEU A   1      19.173  24.830   8.470  0.00  0.00    +0.000 C 
ATOM     70  CD1 LEU A   1      21.473  25.987   8.206  0.00  0.00    +0.000 C 
ENDBRANCH  67  68
ENDBRANCH  64  67
ENDBRANCH  60  64
ENDBRANCH  59  62
BRANCH  59  71
ATOM     71  CB  LEU A   2      21.175  31.781   7.249  0.00  0.00    +0.029 C 
BRANCH  71  72
ATOM     72  CG  LEU A   2      22.046  32.559   8.248  0.00  0.00    +0.002 C 
ATOM     73  CD2 LEU A   2      21.162  33.462   9.152  0.00  0.00    +0.000 C 
ATOM     74  CD1 LEU A   2      23.104  33.365   7.573  0.00  0.00    +0.000 C 
ENDBRANCH  71  72
ENDBRANCH  59  71
ENDBRANCH  55  59
ENDBRANCH  54  56
BRANCH  54  75
ATOM     75  CB  ASP A   3      16.557  28.345   6.877  0.00  0.00    +0.143 C 
BRANCH  75  76
ATOM     76  CG  ASP A   3      15.795  27.259   6.061  0.00  0.00    +0.367 C 
ATOM     77  OD2 ASP A   3      15.318  26.354   6.710  0.00  0.00    -0.246 OA
ATOM     78  OD1 ASP A   3      15.708  27.246   4.814  0.00  0.00    -0.246 OA
ENDBRANCH  75  76
ENDBRANCH  54  75
ENDBRANCH  50  54
ENDBRANCH  49  52
BRANCH  49  79
ATOM     79  CB  THR A   4      16.631  31.156   1.558  0.00  0.00    +0.137 C 
ATOM     80  CG2 THR A   4      17.778  32.102   1.844  0.00  0.00    +0.034 C 
BRANCH  79  81
ATOM     81  OG1 THR A   4      17.150  29.929   0.974  0.00  0.00    -0.382 OA
ATOM     82  HG1 THR A   4      16.396  29.329   0.747  0.00  0.00    +0.210 HD
ENDBRANCH  79  81
ENDBRANCH  49  79
ENDBRANCH  45  49
ENDBRANCH  44  46
ENDBRANCH   1  44
TORSDOF 35
REMARK  Name = ../refined-set-2016/1izh/1izh_pocket.pdb
REMARK  225 active torsions:
REMARK  status: ('A' for Active; 'I' for Inactive)
REMARK    1  A    between atoms: _1  and  _3
REMARK    2  A    between atoms: _3  and  _4
REMARK    3  A    between atoms: _3  and  _6
REMARK    4  A    between atoms: _6  and  _7
REMARK    5  A    between atoms: _7  and  _8
REMARK    6  A    between atoms: _8  and  _9
REMARK    7  A    between atoms: _18  and  _20
REMARK    8  A    between atoms: _20  and  _21
REMARK    9  A    between atoms: _20  and  _23
REMARK   10  A    between atoms: _23  and  _24
REMARK   11  A    between atoms: _27  and  _29
REMARK   12  A    between atoms: _29  and  _30
REMARK   13  A    between atoms: _29  and  _32
REMARK   14  A    between atoms: _32  and  _33
REMARK   15  A    between atoms: _36  and  _38
REMARK   16  A    between atoms: _38  and  _39
REMARK   17  A    between atoms: _38  and  _41
REMARK   18  A    between atoms: _41  and  _42
REMARK   19  A    between atoms: _45  and  _47
REMARK   20  A    between atoms: _47  and  _48
REMARK   21  A    between atoms: _47  and  _50
REMARK   22  A    between atoms: _50  and  _51
REMARK   23  A    between atoms: _54  and  _56
REMARK   24  A    between atoms: _56  and  _57
REMARK   25  A    between atoms: _59  and  _61
REMARK   26  A    between atoms: _61  and  _62
REMARK   27  A    between atoms: _65  and  _67
REMARK   28  A    between atoms: _67  and  _68
REMARK   29  A    between atoms: _67  and  _70
REMARK   30  A    between atoms: _70  and  _71
REMARK   31  A    between atoms: _74  and  _76
REMARK   32  A    between atoms: _76  and  _77
REMARK   33  A    between atoms: _76  and  _79
REMARK   34  A    between atoms: _79  and  _80
REMARK   35  A    between atoms: _83  and  _85
REMARK   36  A    between atoms: _85  and  _86
REMARK   37  A    between atoms: _85  and  _88
REMARK   38  A    between atoms: _88  and  _89
REMARK   39  A    between atoms: _92  and  _94
REMARK   40  A    between atoms: _94  and  _95
REMARK   41  A    between atoms: _94  and  _97
REMARK   42  A    between atoms: _100  and  _102
REMARK   43  A    between atoms: _102  and  _103
REMARK   44  A    between atoms: _102  and  _105
REMARK   45  A    between atoms: _105  and  _106
REMARK   46  A    between atoms: _106  and  _107
REMARK   47  A    between atoms: _109  and  _111
REMARK   48  A    between atoms: _111  and  _112
REMARK   49  A    between atoms: _111  and  _114
REMARK   50  A    between atoms: _114  and  _115
REMARK   51  A    between atoms: _118  and  _120
REMARK   52  A    between atoms: _120  and  _121
REMARK   53  A    between atoms: _123  and  _125
REMARK   54  A    between atoms: _125  and  _126
REMARK   55  A    between atoms: _128  and  _130
REMARK   56  A    between atoms: _130  and  _131
REMARK   57  A    between atoms: _130  and  _133
REMARK   58  A    between atoms: _133  and  _134
REMARK   59  A    between atoms: _137  and  _139
REMARK   60  A    between atoms: _139  and  _140
REMARK   61  A    between atoms: _142  and  _144
REMARK   62  A    between atoms: _144  and  _145
REMARK   63  A    between atoms: _147  and  _149
REMARK   64  A    between atoms: _149  and  _150
REMARK   65  A    between atoms: _149  and  _152
REMARK   66  A    between atoms: _152  and  _153
REMARK   67  A    between atoms: _159  and  _161
REMARK   68  A    between atoms: _161  and  _162
REMARK   69  A    between atoms: _161  and  _164
REMARK   70  A    between atoms: _164  and  _165
REMARK   71  A    between atoms: _168  and  _170
REMARK   72  A    between atoms: _170  and  _171
REMARK   73  A    between atoms: _170  and  _173
REMARK   74  A    between atoms: _176  and  _178
REMARK   75  A    between atoms: _178  and  _179
REMARK   76  A    between atoms: _178  and  _181
REMARK   77  A    between atoms: _181  and  _182
REMARK   78  A    between atoms: _186  and  _187
REMARK   79  A    between atoms: _192  and  _194
REMARK   80  A    between atoms: _194  and  _195
REMARK   81  A    between atoms: _194  and  _197
REMARK   82  A    between atoms: _197  and  _198
REMARK   83  A    between atoms: _202  and  _203
REMARK   84  A    between atoms: _208  and  _210
REMARK   85  A    between atoms: _210  and  _211
REMARK   86  A    between atoms: _210  and  _213
REMARK   87  A    between atoms: _216  and  _218
REMARK   88  A    between atoms: _218  and  _219
REMARK   89  A    between atoms: _218  and  _221
REMARK   90  A    between atoms: _221  and  _222
REMARK   91  A    between atoms: _227  and  _229
REMARK   92  A    between atoms: _229  and  _230
REMARK   93  A    between atoms: _229  and  _232
REMARK   94  A    between atoms: _232  and  _233
REMARK   95  A    between atoms: _236  and  _238
REMARK   96  A    between atoms: _238  and  _239
REMARK   97  A    between atoms: _238  and  _241
REMARK   98  A    between atoms: _241  and  _242
REMARK   99  A    between atoms: _245  and  _247
REMARK  100  A    between atoms: _247  and  _248
REMARK  101  A    between atoms: _250  and  _252
REMARK  102  A    between atoms: _252  and  _253
REMARK  103  A    between atoms: _252  and  _255
REMARK  104  A    between atoms: _255  and  _256
REMARK  105  A    between atoms: _256  and  _257
REMARK  106  A    between atoms: _257  and  _258
REMARK  107  A    between atoms: _267  and  _269
REMARK  108  A    between atoms: _269  and  _270
REMARK  109  A    between atoms: _269  and  _272
REMARK  110  A    between atoms: _272  and  _273
REMARK  111  A    between atoms: _278  and  _280
REMARK  112  A    between atoms: _280  and  _281
REMARK  113  A    between atoms: _280  and  _283
REMARK  114  A    between atoms: _283  and  _284
REMARK  115  A    between atoms: _284  and  _285
REMARK  116  A    between atoms: _285  and  _286
REMARK  117  A    between atoms: _295  and  _297
REMARK  118  A    between atoms: _297  and  _298
REMARK  119  A    between atoms: _297  and  _300
REMARK  120  A    between atoms: _300  and  _301
REMARK  121  A    between atoms: _304  and  _306
REMARK  122  A    between atoms: _306  and  _307
REMARK  123  A    between atoms: _306  and  _309
REMARK  124  A    between atoms: _309  and  _310
REMARK  125  A    between atoms: _313  and  _315
REMARK  126  A    between atoms: _315  and  _316
REMARK  127  A    between atoms: _315  and  _318
REMARK  128  A    between atoms: _318  and  _319
REMARK  129  A    between atoms: _322  and  _324
REMARK  130  A    between atoms: _324  and  _325
REMARK  131  A    between atoms: _324  and  _327
REMARK  132  A    between atoms: _327  and  _328
REMARK  133  A    between atoms: _331  and  _333
REMARK  134  A    between atoms: _333  and  _334
REMARK  135  A    between atoms: _336  and  _338
REMARK  136  A    between atoms: _338  and  _339
REMARK  137  A    between atoms: _342  and  _344
REMARK  138  A    between atoms: _344  and  _345
REMARK  139  A    between atoms: _344  and  _347
REMARK  140  A    between atoms: _347  and  _348
REMARK  141  A    between atoms: _351  and  _353
REMARK  142  A    between atoms: _353  and  _354
REMARK  143  A    between atoms: _353  and  _356
REMARK  144  A    between atoms: _356  and  _357
REMARK  145  A    between atoms: _360  and  _362
REMARK  146  A    between atoms: _362  and  _363
REMARK  147  A    between atoms: _362  and  _365
REMARK  148  A    between atoms: _365  and  _366
REMARK  149  A    between atoms: _369  and  _371
REMARK  150  A    between atoms: _371  and  _372
REMARK  151  A    between atoms: _371  and  _374
REMARK  152  A    between atoms: _377  and  _379
REMARK  153  A    between atoms: _379  and  _380
REMARK  154  A    between atoms: _379  and  _382
REMARK  155  A    between atoms: _383  and  _384
REMARK  156  A    between atoms: _384  and  _385
REMARK  157  A    between atoms: _385  and  _386
REMARK  158  A    between atoms: _390  and  _392
REMARK  159  A    between atoms: _392  and  _393
REMARK  160  A    between atoms: _392  and  _395
REMARK  161  A    between atoms: _395  and  _396
REMARK  162  A    between atoms: _396  and  _397
REMARK  163  A    between atoms: _399  and  _401
REMARK  164  A    between atoms: _401  and  _402
REMARK  165  A    between atoms: _401  and  _404
REMARK  166  A    between atoms: _404  and  _405
REMARK  167  A    between atoms: _408  and  _410
REMARK  168  A    between atoms: _410  and  _411
REMARK  169  A    between atoms: _413  and  _415
REMARK  170  A    between atoms: _415  and  _416
REMARK  171  A    between atoms: _418  and  _420
REMARK  172  A    between atoms: _420  and  _421
REMARK  173  A    between atoms: _420  and  _423
REMARK  174  A    between atoms: _423  and  _424
REMARK  175  A    between atoms: _427  and  _429
REMARK  176  A    between atoms: _429  and  _430
REMARK  177  A    between atoms: _432  and  _434
REMARK  178  A    between atoms: _434  and  _435
REMARK  179  A    between atoms: _437  and  _439
REMARK  180  A    between atoms: _439  and  _440
REMARK  181  A    between atoms: _439  and  _442
REMARK  182  A    between atoms: _442  and  _443
REMARK  183  A    between atoms: _449  and  _451
REMARK  184  A    between atoms: _451  and  _452
REMARK  185  A    between atoms: _451  and  _454
REMARK  186  A    between atoms: _454  and  _455
REMARK  187  A    between atoms: _458  and  _460
REMARK  188  A    between atoms: _460  and  _461
REMARK  189  A    between atoms: _460  and  _463
REMARK  190  A    between atoms: _466  and  _468
REMARK  191  A    between atoms: _468  and  _469
REMARK  192  A    between atoms: _468  and  _471
REMARK  193  A    between atoms: _471  and  _472
REMARK  194  A    between atoms: _475  and  _477
REMARK  195  A    between atoms: _477  and  _478
REMARK  196  A    between atoms: _477  and  _480
REMARK  197  A    between atoms: _480  and  _481
REMARK  198  A    between atoms: _485  and  _486
REMARK  199  A    between atoms: _491  and  _493
REMARK  200  A    between atoms: _493  and  _494
REMARK  201  A    between atoms: _493  and  _496
REMARK  202  A    between atoms: _499  and  _501
REMARK  203  A    between atoms: _501  and  _502
REMARK  204  A    between atoms: _501  and  _504
REMARK  205  A    between atoms: _504  and  _505
REMARK  206  A    between atoms: _510  and  _512
REMARK  207  A    between atoms: _512  and  _513
REMARK  208  A    between atoms: _512  and  _515
REMARK  209  A    between atoms: _515  and  _516
REMARK  210  A    between atoms: _519  and  _521
REMARK  211  A    between atoms: _521  and  _522
REMARK  212  A    between atoms: _521  and  _524
REMARK  213  A    between atoms: _524  and  _525
REMARK  214  A    between atoms: _528  and  _530
REMARK  215  A    between atoms: _530  and  _531
REMARK  216  A    between atoms: _533  and  _535
REMARK  217  A    between atoms: _535  and  _536
REMARK  218  A    between atoms: _535  and  _538
REMARK  219  A    between atoms: _538  and  _539
REMARK  220  A    between atoms: _539  and  _540
REMARK  221  A    between atoms: _540  and  _541
REMARK  222  A    between atoms: _550  and  _552
REMARK  223  A    between atoms: _552  and  _553
REMARK  224  A    between atoms: _552  and  _555
REMARK  225  A    between atoms: _555  and  _556
REMARK                            x       y       z     vdW  Elec       q    Type
REMARK                         _______ _______ _______ _____ _____    ______ ____
ROOT
ATOM      1  CA  ILE A   5       9.366  17.883   5.021  0.00  0.00    +0.149 C 
ENDROOT
BRANCH   1   4
ATOM      2  C   GLY A   4       7.956  19.710   5.687  0.00  0.00    +0.243 C 
ATOM      3  O   GLY A   4       6.977  19.005   5.612  0.00  0.00    -0.273 OA
ATOM      4  N   ILE A   5       9.158  19.295   5.313  0.00  0.00    -0.297 N 
ATOM      5  H   ILE A   5       9.944  19.970   5.229  0.00  0.00    +0.150 HD
BRANCH   2   6
ATOM      6  CA  GLY A   4       7.833  21.112   6.218  0.00  0.00    +0.176 C 
BRANCH   6   8
ATOM      7  C   GLY A   3       6.083  22.285   7.366  0.00  0.00    +0.243 C 
ATOM      8  N   GLY A   4       6.670  21.157   7.053  0.00  0.00    -0.295 N 
ATOM      9  H   GLY A   4       6.280  20.266   7.422  0.00  0.00    +0.150 HD
ATOM     10  O   GLY A   3       6.504  23.360   6.994  0.00  0.00    -0.273 OA
BRANCH   7  11
ATOM     11  CA  GLY A   3       4.849  22.157   8.259  0.00  0.00    +0.176 C 
BRANCH  11  14
ATOM     12  C   ILE A   2       4.433  23.371  10.337  0.00  0.00    +0.241 C 
ATOM     13  O   ILE A   2       4.539  22.378  11.057  0.00  0.00    -0.273 OA
ATOM     14  N   GLY A   3       4.608  23.368   9.024  0.00  0.00    -0.295 N 
ATOM     15  H   GLY A   3       4.571  24.275   8.517  0.00  0.00    +0.150 HD
BRANCH  12  16
ATOM     16  CA  ILE A   2       4.009  24.674  10.912  0.00  0.00    +0.148 C 
BRANCH  16  18
ATOM     17  C   MET A   1       1.891  24.962  12.057  0.00  0.00    +0.238 C 
ATOM     18  N   ILE A   2       3.095  24.412  12.030  0.00  0.00    -0.297 N 
ATOM     19  H   ILE A   2       3.395  23.789  12.807  0.00  0.00    +0.150 HD
ATOM     20  O   MET A   1       1.490  25.806  11.198  0.00  0.00    -0.274 OA
BRANCH  17  21
ATOM     21  CA  MET A   1       1.027  24.524  13.246  0.00  0.00    +0.146 C 
BRANCH  21  22
ATOM     22  N   MET A   1       0.449  25.716  13.840  0.00  0.00    -0.238 NA
ATOM     23  H   MET A   1      -0.311  26.221  13.341  0.00  0.00    +0.142 HD
ENDBRANCH  21  22
BRANCH  21  24
ATOM     24  CB  MET A   1      -0.063  23.542  12.803  0.00  0.00    +0.038 C 
BRANCH  24  25
ATOM     25  CG  MET A   1      -0.977  23.093  13.962  0.00  0.00    +0.060 C 
BRANCH  25  26
ATOM     26  SD  MET A   1      -0.091  21.973  15.041  0.00  0.00    -0.139 S 
ATOM     27  CE  MET A   1       0.657  21.084  14.006  0.00  0.00    +0.069 C 
ENDBRANCH  25  26
ENDBRANCH  24  25
ENDBRANCH  21  24
ENDBRANCH  17  21
ENDBRANCH  16  18
BRANCH  16  28
ATOM     28  CB  ILE A   2       5.209  25.496  11.328  0.00  0.00    +0.027 C 
ATOM     29  CG2 ILE A   2       4.746  26.912  11.791  0.00  0.00    +0.002 C 
BRANCH  28  30
ATOM     30  CG1 ILE A   2       6.010  24.746  12.386  0.00  0.00    +0.002 C 
ATOM     31  CD1 ILE A   2       7.383  25.397  12.731  0.00  0.00    +0.000 C 
ENDBRANCH  28  30
ENDBRANCH  16  28
ENDBRANCH  12  16
ENDBRANCH  11  14
ENDBRANCH   7  11
ENDBRANCH   6   8
ENDBRANCH   2   6
ENDBRANCH   1   4
BRANCH   1  32
ATOM     32  C   ILE A   5       9.005  17.055   6.265  0.00  0.00    +0.241 C 
ATOM     33  O   ILE A   5       9.463  17.356   7.367  0.00  0.00    -0.273 OA
ATOM     34  N   GLY A   6       8.267  15.984   6.093  0.00  0.00    -0.295 N 
ATOM     35  H   GLY A   6       7.926  15.724   5.146  0.00  0.00    +0.150 HD
BRANCH  34  36
ATOM     36  CA  GLY A   6       7.932  15.161   7.258  0.00  0.00    +0.176 C 
BRANCH  36  37
ATOM     37  C   GLY A   6       6.565  15.486   7.847  0.00  0.00    +0.243 C 
ATOM     38  O   GLY A   6       6.035  14.652   8.537  0.00  0.00    -0.273 OA
ATOM     39  N   GLY A   7       5.980  16.646   7.538  0.00  0.00    -0.295 N 
ATOM     40  H   GLY A   7       6.468  17.309   6.902  0.00  0.00    +0.150 HD
BRANCH  39  41
ATOM     41  CA  GLY A   7       4.655  17.008   8.080  0.00  0.00    +0.176 C 
BRANCH  41  42
ATOM     42  C   GLY A   7       4.725  18.221   8.997  0.00  0.00    +0.243 C 
ATOM     43  N   PHE A   8       3.862  18.237  10.019  0.00  0.00    -0.297 N 
ATOM     44  H   PHE A   8       3.320  17.376  10.235  0.00  0.00    +0.150 HD
ATOM     45  O   GLY A   7       5.610  19.077   8.827  0.00  0.00    -0.273 OA
BRANCH  43  46
ATOM     46  CA  PHE A   8       3.658  19.429  10.842  0.00  0.00    +0.153 C 
BRANCH  46  47
ATOM     47  C   PHE A   8       4.066  19.218  12.286  0.00  0.00    +0.241 C 
ATOM     48  N   ILE A   9       4.488  20.300  12.933  0.00  0.00    -0.298 N 
ATOM     49  H   ILE A   9       4.708  21.153  12.380  0.00  0.00    +0.150 HD
ATOM     50  O   PHE A   8       3.997  18.095  12.806  0.00  0.00    -0.273 OA
BRANCH  48  51
ATOM     51  CA  ILE A   9       4.654  20.347  14.359  0.00  0.00    +0.137 C 
BRANCH  51  52
ATOM     52  CB  ILE A   9       6.138  20.389  14.771  0.00  0.00    +0.026 C 
ATOM     53  CG2 ILE A   9       6.827  19.067  14.421  0.00  0.00    +0.002 C 
BRANCH  52  54
ATOM     54  CG1 ILE A   9       6.817  21.623  14.201  0.00  0.00    +0.002 C 
ATOM     55  CD1 ILE A   9       8.279  21.928  14.827  0.00  0.00    +0.000 C 
ENDBRANCH  52  54
ENDBRANCH  51  52
BRANCH  51  56
ATOM     56  C   ILE A   9       3.907  21.547  14.973  0.00  0.00    +0.227 C 
ATOM     57  O   ILE A   9       3.620  22.541  14.321  0.00  0.00    -0.286 OA
ENDBRANCH  51  56
ENDBRANCH  48  51
ENDBRANCH  46  47
BRANCH  46  58
ATOM     58  CB  PHE A   8       2.210  19.820  10.803  0.00  0.00    +0.055 C 
BRANCH  58  59
ATOM     59  CG  PHE A   8       1.734  20.258   9.460  0.00  0.00    -0.020 A 
ATOM     60  CD2 PHE A   8       1.440  21.580   9.209  0.00  0.00    -0.004 A 
ATOM     61  CE2 PHE A   8       0.983  21.994   7.963  0.00  0.00    -0.000 A 
ATOM     62  CZ  PHE A   8       0.753  21.093   6.995  0.00  0.00    -0.000 A 
ATOM     63  CE1 PHE A   8       1.051  19.732   7.218  0.00  0.00    -0.000 A 
ATOM     64  CD1 PHE A   8       1.521  19.317   8.451  0.00  0.00    -0.004 A 
ENDBRANCH  58  59
ENDBRANCH  46  58
ENDBRANCH  43  46
ENDBRANCH  41  42
ENDBRANCH  39  41
ENDBRANCH  36  37
ENDBRANCH  34  36
ENDBRANCH   1  32
BRANCH   1  65
ATOM     65  CB  ILE A   5      10.842  17.623   4.722  0.00  0.00    +0.027 C 
ATOM     66  CG2 ILE A   5      11.079  16.094   4.505  0.00  0.00    +0.002 C 
BRANCH  65  67
ATOM     67  CG1 ILE A   5      11.294  18.440   3.526  0.00  0.00    +0.002 C 
ATOM     68  CD1 ILE A   5      10.751  17.975   2.317  0.00  0.00    +0.000 C 
ENDBRANCH  65  67
ENDBRANCH   1  65
TORSDOF 29
REMARK  Name = ../refined-set-2016/1izh/1izh_pocket.pdb
REMARK  225 active torsions:
REMARK  status: ('A' for Active; 'I' for Inactive)
REMARK    1  A    between atoms: _1  and  _3
REMARK    2  A    between atoms: _3  and  _4
REMARK    3  A    between atoms: _3  and  _6
REMARK    4  A    between atoms: _6  and  _7
REMARK    5  A    between atoms: _7  and  _8
REMARK    6  A    between atoms: _8  and  _9
REMARK    7  A    between atoms: _18  and  _20
REMARK    8  A    between atoms: _20  and  _21
REMARK    9  A    between atoms: _20  and  _23
REMARK   10  A    between atoms: _23  and  _24
REMARK   11  A    between atoms: _27  and  _29
REMARK   12  A    between atoms: _29  and  _30
REMARK   13  A    between atoms: _29  and  _32
REMARK   14  A    between atoms: _32  and  _33
REMARK   15  A    between atoms: _36  and  _38
REMARK   16  A    between atoms: _38  and  _39
REMARK   17  A    between atoms: _38  and  _41
REMARK   18  A    between atoms: _41  and  _42
REMARK   19  A    between atoms: _45  and  _47
REMARK   20  A    between atoms: _47  and  _48
REMARK   21  A    between atoms: _47  and  _50
REMARK   22  A    between atoms: _50  and  _51
REMARK   23  A    between atoms: _54  and  _56
REMARK   24  A    between atoms: _56  and  _57
REMARK   25  A    between atoms: _59  and  _61
REMARK   26  A    between atoms: _61  and  _62
REMARK   27  A    between atoms: _65  and  _67
REMARK   28  A    between atoms: _67  and  _68
REMARK   29  A    between atoms: _67  and  _70
REMARK   30  A    between atoms: _70  and  _71
REMARK   31  A    between atoms: _74  and  _76
REMARK   32  A    between atoms: _76  and  _77
REMARK   33  A    between atoms: _76  and  _79
REMARK   34  A    between atoms: _79  and  _80
REMARK   35  A    between atoms: _83  and  _85
REMARK   36  A    between atoms: _85  and  _86
REMARK   37  A    between atoms: _85  and  _88
REMARK   38  A    between atoms: _88  and  _89
REMARK   39  A    between atoms: _92  and  _94
REMARK   40  A    between atoms: _94  and  _95
REMARK   41  A    between atoms: _94  and  _97
REMARK   42  A    between atoms: _100  and  _102
REMARK   43  A    between atoms: _102  and  _103
REMARK   44  A    between atoms: _102  and  _105
REMARK   45  A    between atoms: _105  and  _106
REMARK   46  A    between atoms: _106  and  _107
REMARK   47  A    between atoms: _109  and  _111
REMARK   48  A    between atoms: _111  and  _112
REMARK   49  A    between atoms: _111  and  _114
REMARK   50  A    between atoms: _114  and  _115
REMARK   51  A    between atoms: _118  and  _120
REMARK   52  A    between atoms: _120  and  _121
REMARK   53  A    between atoms: _123  and  _125
REMARK   54  A    between atoms: _125  and  _126
REMARK   55  A    between atoms: _128  and  _130
REMARK   56  A    between atoms: _130  and  _131
REMARK   57  A    between atoms: _130  and  _133
REMARK   58  A    between atoms: _133  and  _134
REMARK   59  A    between atoms: _137  and  _139
REMARK   60  A    between atoms: _139  and  _140
REMARK   61  A    between atoms: _142  and  _144
REMARK   62  A    between atoms: _144  and  _145
REMARK   63  A    between atoms: _147  and  _149
REMARK   64  A    between atoms: _149  and  _150
REMARK   65  A    between atoms: _149  and  _152
REMARK   66  A    between atoms: _152  and  _153
REMARK   67  A    between atoms: _159  and  _161
REMARK   68  A    between atoms: _161  and  _162
REMARK   69  A    between atoms: _161  and  _164
REMARK   70  A    between atoms: _164  and  _165
REMARK   71  A    between atoms: _168  and  _170
REMARK   72  A    between atoms: _170  and  _171
REMARK   73  A    between atoms: _170  and  _173
REMARK   74  A    between atoms: _176  and  _178
REMARK   75  A    between atoms: _178  and  _179
REMARK   76  A    between atoms: _178  and  _181
REMARK   77  A    between atoms: _181  and  _182
REMARK   78  A    between atoms: _186  and  _187
REMARK   79  A    between atoms: _192  and  _194
REMARK   80  A    between atoms: _194  and  _195
REMARK   81  A    between atoms: _194  and  _197
REMARK   82  A    between atoms: _197  and  _198
REMARK   83  A    between atoms: _202  and  _203
REMARK   84  A    between atoms: _208  and  _210
REMARK   85  A    between atoms: _210  and  _211
REMARK   86  A    between atoms: _210  and  _213
REMARK   87  A    between atoms: _216  and  _218
REMARK   88  A    between atoms: _218  and  _219
REMARK   89  A    between atoms: _218  and  _221
REMARK   90  A    between atoms: _221  and  _222
REMARK   91  A    between atoms: _227  and  _229
REMARK   92  A    between atoms: _229  and  _230
REMARK   93  A    between atoms: _229  and  _232
REMARK   94  A    between atoms: _232  and  _233
REMARK   95  A    between atoms: _236  and  _238
REMARK   96  A    between atoms: _238  and  _239
REMARK   97  A    between atoms: _238  and  _241
REMARK   98  A    between atoms: _241  and  _242
REMARK   99  A    between atoms: _245  and  _247
REMARK  100  A    between atoms: _247  and  _248
REMARK  101  A    between atoms: _250  and  _252
REMARK  102  A    between atoms: _252  and  _253
REMARK  103  A    between atoms: _252  and  _255
REMARK  104  A    between atoms: _255  and  _256
REMARK  105  A    between atoms: _256  and  _257
REMARK  106  A    between atoms: _257  and  _258
REMARK  107  A    between atoms: _267  and  _269
REMARK  108  A    between atoms: _269  and  _270
REMARK  109  A    between atoms: _269  and  _272
REMARK  110  A    between atoms: _272  and  _273
REMARK  111  A    between atoms: _278  and  _280
REMARK  112  A    between atoms: _280  and  _281
REMARK  113  A    between atoms: _280  and  _283
REMARK  114  A    between atoms: _283  and  _284
REMARK  115  A    between atoms: _284  and  _285
REMARK  116  A    between atoms: _285  and  _286
REMARK  117  A    between atoms: _295  and  _297
REMARK  118  A    between atoms: _297  and  _298
REMARK  119  A    between atoms: _297  and  _300
REMARK  120  A    between atoms: _300  and  _301
REMARK  121  A    between atoms: _304  and  _306
REMARK  122  A    between atoms: _306  and  _307
REMARK  123  A    between atoms: _306  and  _309
REMARK  124  A    between atoms: _309  and  _310
REMARK  125  A    between atoms: _313  and  _315
REMARK  126  A    between atoms: _315  and  _316
REMARK  127  A    between atoms: _315  and  _318
REMARK  128  A    between atoms: _318  and  _319
REMARK  129  A    between atoms: _322  and  _324
REMARK  130  A    between atoms: _324  and  _325
REMARK  131  A    between atoms: _324  and  _327
REMARK  132  A    between atoms: _327  and  _328
REMARK  133  A    between atoms: _331  and  _333
REMARK  134  A    between atoms: _333  and  _334
REMARK  135  A    between atoms: _336  and  _338
REMARK  136  A    between atoms: _338  and  _339
REMARK  137  A    between atoms: _342  and  _344
REMARK  138  A    between atoms: _344  and  _345
REMARK  139  A    between atoms: _344  and  _347
REMARK  140  A    between atoms: _347  and  _348
REMARK  141  A    between atoms: _351  and  _353
REMARK  142  A    between atoms: _353  and  _354
REMARK  143  A    between atoms: _353  and  _356
REMARK  144  A    between atoms: _356  and  _357
REMARK  145  A    between atoms: _360  and  _362
REMARK  146  A    between atoms: _362  and  _363
REMARK  147  A    between atoms: _362  and  _365
REMARK  148  A    between atoms: _365  and  _366
REMARK  149  A    between atoms: _369  and  _371
REMARK  150  A    between atoms: _371  and  _372
REMARK  151  A    between atoms: _371  and  _374
REMARK  152  A    between atoms: _377  and  _379
REMARK  153  A    between atoms: _379  and  _380
REMARK  154  A    between atoms: _379  and  _382
REMARK  155  A    between atoms: _383  and  _384
REMARK  156  A    between atoms: _384  and  _385
REMARK  157  A    between atoms: _385  and  _386
REMARK  158  A    between atoms: _390  and  _392
REMARK  159  A    between atoms: _392  and  _393
REMARK  160  A    between atoms: _392  and  _395
REMARK  161  A    between atoms: _395  and  _396
REMARK  162  A    between atoms: _396  and  _397
REMARK  163  A    between atoms: _399  and  _401
REMARK  164  A    between atoms: _401  and  _402
REMARK  165  A    between atoms: _401  and  _404
REMARK  166  A    between atoms: _404  and  _405
REMARK  167  A    between atoms: _408  and  _410
REMARK  168  A    between atoms: _410  and  _411
REMARK  169  A    between atoms: _413  and  _415
REMARK  170  A    between atoms: _415  and  _416
REMARK  171  A    between atoms: _418  and  _420
REMARK  172  A    between atoms: _420  and  _421
REMARK  173  A    between atoms: _420  and  _423
REMARK  174  A    between atoms: _423  and  _424
REMARK  175  A    between atoms: _427  and  _429
REMARK  176  A    between atoms: _429  and  _430
REMARK  177  A    between atoms: _432  and  _434
REMARK  178  A    between atoms: _434  and  _435
REMARK  179  A    between atoms: _437  and  _439
REMARK  180  A    between atoms: _439  and  _440
REMARK  181  A    between atoms: _439  and  _442
REMARK  182  A    between atoms: _442  and  _443
REMARK  183  A    between atoms: _449  and  _451
REMARK  184  A    between atoms: _451  and  _452
REMARK  185  A    between atoms: _451  and  _454
REMARK  186  A    between atoms: _454  and  _455
REMARK  187  A    between atoms: _458  and  _460
REMARK  188  A    between atoms: _460  and  _461
REMARK  189  A    between atoms: _460  and  _463
REMARK  190  A    between atoms: _466  and  _468
REMARK  191  A    between atoms: _468  and  _469
REMARK  192  A    between atoms: _468  and  _471
REMARK  193  A    between atoms: _471  and  _472
REMARK  194  A    between atoms: _475  and  _477
REMARK  195  A    between atoms: _477  and  _478
REMARK  196  A    between atoms: _477  and  _480
REMARK  197  A    between atoms: _480  and  _481
REMARK  198  A    between atoms: _485  and  _486
REMARK  199  A    between atoms: _491  and  _493
REMARK  200  A    between atoms: _493  and  _494
REMARK  201  A    between atoms: _493  and  _496
REMARK  202  A    between atoms: _499  and  _501
REMARK  203  A    between atoms: _501  and  _502
REMARK  204  A    between atoms: _501  and  _504
REMARK  205  A    between atoms: _504  and  _505
REMARK  206  A    between atoms: _510  and  _512
REMARK  207  A    between atoms: _512  and  _513
REMARK  208  A    between atoms: _512  and  _515
REMARK  209  A    between atoms: _515  and  _516
REMARK  210  A    between atoms: _519  and  _521
REMARK  211  A    between atoms: _521  and  _522
REMARK  212  A    between atoms: _521  and  _524
REMARK  213  A    between atoms: _524  and  _525
REMARK  214  A    between atoms: _528  and  _530
REMARK  215  A    between atoms: _530  and  _531
REMARK  216  A    between atoms: _533  and  _535
REMARK  217  A    between atoms: _535  and  _536
REMARK  218  A    between atoms: _535  and  _538
REMARK  219  A    between atoms: _538  and  _539
REMARK  220  A    between atoms: _539  and  _540
REMARK  221  A    between atoms: _540  and  _541
REMARK  222  A    between atoms: _550  and  _552
REMARK  223  A    between atoms: _552  and  _553
REMARK  224  A    between atoms: _552  and  _555
REMARK  225  A    between atoms: _555  and  _556
REMARK                            x       y       z     vdW  Elec       q    Type
REMARK                         _______ _______ _______ _____ _____    ______ ____
ROOT
ATOM      1  CA  VAL A   1       4.705  25.684  18.089  0.00  0.00    +0.133 C 
ENDROOT
BRANCH   1   2
ATOM      2  CB  VAL A   1       5.621  26.350  16.991  0.00  0.00    +0.023 C 
ATOM      3  CG2 VAL A   1       6.549  25.313  16.374  0.00  0.00    +0.002 C 
ATOM      4  CG1 VAL A   1       4.777  26.985  15.905  0.00  0.00    +0.002 C 
ENDBRANCH   1   2
BRANCH   1   5
ATOM      5  N   VAL A   1       3.783  24.693  17.533  0.00  0.00    -0.239 NA
ATOM      6  H   VAL A   1       2.959  25.035  16.999  0.00  0.00    +0.142 HD
ENDBRANCH   1   5
BRANCH   1   7
ATOM      7  C   VAL A   1       3.919  26.772  18.805  0.00  0.00    +0.224 C 
ATOM      8  O   VAL A   1       2.715  26.933  18.589  0.00  0.00    -0.287 OA
ENDBRANCH   1   7
TORSDOF 3
REMARK  Name = ../refined-set-2016/1izh/1izh_pocket.pdb
REMARK  225 active torsions:
REMARK  status: ('A' for Active; 'I' for Inactive)
REMARK    1  A    between atoms: _1  and  _3
REMARK    2  A    between atoms: _3  and  _4
REMARK    3  A    between atoms: _3  and  _6
REMARK    4  A    between atoms: _6  and  _7
REMARK    5  A    between atoms: _7  and  _8
REMARK    6  A    between atoms: _8  and  _9
REMARK    7  A    between atoms: _18  and  _20
REMARK    8  A    between atoms: _20  and  _21
REMARK    9  A    between atoms: _20  and  _23
REMARK   10  A    between atoms: _23  and  _24
REMARK   11  A    between atoms: _27  and  _29
REMARK   12  A    between atoms: _29  and  _30
REMARK   13  A    between atoms: _29  and  _32
REMARK   14  A    between atoms: _32  and  _33
REMARK   15  A    between atoms: _36  and  _38
REMARK   16  A    between atoms: _38  and  _39
REMARK   17  A    between atoms: _38  and  _41
REMARK   18  A    between atoms: _41  and  _42
REMARK   19  A    between atoms: _45  and  _47
REMARK   20  A    between atoms: _47  and  _48
REMARK   21  A    between atoms: _47  and  _50
REMARK   22  A    between atoms: _50  and  _51
REMARK   23  A    between atoms: _54  and  _56
REMARK   24  A    between atoms: _56  and  _57
REMARK   25  A    between atoms: _59  and  _61
REMARK   26  A    between atoms: _61  and  _62
REMARK   27  A    between atoms: _65  and  _67
REMARK   28  A    between atoms: _67  and  _68
REMARK   29  A    between atoms: _67  and  _70
REMARK   30  A    between atoms: _70  and  _71
REMARK   31  A    between atoms: _74  and  _76
REMARK   32  A    between atoms: _76  and  _77
REMARK   33  A    between atoms: _76  and  _79
REMARK   34  A    between atoms: _79  and  _80
REMARK   35  A    between atoms: _83  and  _85
REMARK   36  A    between atoms: _85  and  _86
REMARK   37  A    between atoms: _85  and  _88
REMARK   38  A    between atoms: _88  and  _89
REMARK   39  A    between atoms: _92  and  _94
REMARK   40  A    between atoms: _94  and  _95
REMARK   41  A    between atoms: _94  and  _97
REMARK   42  A    between atoms: _100  and  _102
REMARK   43  A    between atoms: _102  and  _103
REMARK   44  A    between atoms: _102  and  _105
REMARK   45  A    between atoms: _105  and  _106
REMARK   46  A    between atoms: _106  and  _107
REMARK   47  A    between atoms: _109  and  _111
REMARK   48  A    between atoms: _111  and  _112
REMARK   49  A    between atoms: _111  and  _114
REMARK   50  A    between atoms: _114  and  _115
REMARK   51  A    between atoms: _118  and  _120
REMARK   52  A    between atoms: _120  and  _121
REMARK   53  A    between atoms: _123  and  _125
REMARK   54  A    between atoms: _125  and  _126
REMARK   55  A    between atoms: _128  and  _130
REMARK   56  A    between atoms: _130  and  _131
REMARK   57  A    between atoms: _130  and  _133
REMARK   58  A    between atoms: _133  and  _134
REMARK   59  A    between atoms: _137  and  _139
REMARK   60  A    between atoms: _139  and  _140
REMARK   61  A    between atoms: _142  and  _144
REMARK   62  A    between atoms: _144  and  _145
REMARK   63  A    between atoms: _147  and  _149
REMARK   64  A    between atoms: _149  and  _150
REMARK   65  A    between atoms: _149  and  _152
REMARK   66  A    between atoms: _152  and  _153
REMARK   67  A    between atoms: _159  and  _161
REMARK   68  A    between atoms: _161  and  _162
REMARK   69  A    between atoms: _161  and  _164
REMARK   70  A    between atoms: _164  and  _165
REMARK   71  A    between atoms: _168  and  _170
REMARK   72  A    between atoms: _170  and  _171
REMARK   73  A    between atoms: _170  and  _173
REMARK   74  A    between atoms: _176  and  _178
REMARK   75  A    between atoms: _178  and  _179
REMARK   76  A    between atoms: _178  and  _181
REMARK   77  A    between atoms: _181  and  _182
REMARK   78  A    between atoms: _186  and  _187
REMARK   79  A    between atoms: _192  and  _194
REMARK   80  A    between atoms: _194  and  _195
REMARK   81  A    between atoms: _194  and  _197
REMARK   82  A    between atoms: _197  and  _198
REMARK   83  A    between atoms: _202  and  _203
REMARK   84  A    between atoms: _208  and  _210
REMARK   85  A    between atoms: _210  and  _211
REMARK   86  A    between atoms: _210  and  _213
REMARK   87  A    between atoms: _216  and  _218
REMARK   88  A    between atoms: _218  and  _219
REMARK   89  A    between atoms: _218  and  _221
REMARK   90  A    between atoms: _221  and  _222
REMARK   91  A    between atoms: _227  and  _229
REMARK   92  A    between atoms: _229  and  _230
REMARK   93  A    between atoms: _229  and  _232
REMARK   94  A    between atoms: _232  and  _233
REMARK   95  A    between atoms: _236  and  _238
REMARK   96  A    between atoms: _238  and  _239
REMARK   97  A    between atoms: _238  and  _241
REMARK   98  A    between atoms: _241  and  _242
REMARK   99  A    between atoms: _245  and  _247
REMARK  100  A    between atoms: _247  and  _248
REMARK  101  A    between atoms: _250  and  _252
REMARK  102  A    between atoms: _252  and  _253
REMARK  103  A    between atoms: _252  and  _255
REMARK  104  A    between atoms: _255  and  _256
REMARK  105  A    between atoms: _256  and  _257
REMARK  106  A    between atoms: _257  and  _258
REMARK  107  A    between atoms: _267  and  _269
REMARK  108  A    between atoms: _269  and  _270
REMARK  109  A    between atoms: _269  and  _272
REMARK  110  A    between atoms: _272  and  _273
REMARK  111  A    between atoms: _278  and  _280
REMARK  112  A    between atoms: _280  and  _281
REMARK  113  A    between atoms: _280  and  _283
REMARK  114  A    between atoms: _283  and  _284
REMARK  115  A    between atoms: _284  and  _285
REMARK  116  A    between atoms: _285  and  _286
REMARK  117  A    between atoms: _295  and  _297
REMARK  118  A    between atoms: _297  and  _298
REMARK  119  A    between atoms: _297  and  _300
REMARK  120  A    between atoms: _300  and  _301
REMARK  121  A    between atoms: _304  and  _306
REMARK  122  A    between atoms: _306  and  _307
REMARK  123  A    between atoms: _306  and  _309
REMARK  124  A    between atoms: _309  and  _310
REMARK  125  A    between atoms: _313  and  _315
REMARK  126  A    between atoms: _315  and  _316
REMARK  127  A    between atoms: _315  and  _318
REMARK  128  A    between atoms: _318  and  _319
REMARK  129  A    between atoms: _322  and  _324
REMARK  130  A    between atoms: _324  and  _325
REMARK  131  A    between atoms: _324  and  _327
REMARK  132  A    between atoms: _327  and  _328
REMARK  133  A    between atoms: _331  and  _333
REMARK  134  A    between atoms: _333  and  _334
REMARK  135  A    between atoms: _336  and  _338
REMARK  136  A    between atoms: _338  and  _339
REMARK  137  A    between atoms: _342  and  _344
REMARK  138  A    between atoms: _344  and  _345
REMARK  139  A    between atoms: _344  and  _347
REMARK  140  A    between atoms: _347  and  _348
REMARK  141  A    between atoms: _351  and  _353
REMARK  142  A    between atoms: _353  and  _354
REMARK  143  A    between atoms: _353  and  _356
REMARK  144  A    between atoms: _356  and  _357
REMARK  145  A    between atoms: _360  and  _362
REMARK  146  A    between atoms: _362  and  _363
REMARK  147  A    between atoms: _362  and  _365
REMARK  148  A    between atoms: _365  and  _366
REMARK  149  A    between atoms: _369  and  _371
REMARK  150  A    between atoms: _371  and  _372
REMARK  151  A    between atoms: _371  and  _374
REMARK  152  A    between atoms: _377  and  _379
REMARK  153  A    between atoms: _379  and  _380
REMARK  154  A    between atoms: _379  and  _382
REMARK  155  A    between atoms: _383  and  _384
REMARK  156  A    between atoms: _384  and  _385
REMARK  157  A    between atoms: _385  and  _386
REMARK  158  A    between atoms: _390  and  _392
REMARK  159  A    between atoms: _392  and  _393
REMARK  160  A    between atoms: _392  and  _395
REMARK  161  A    between atoms: _395  and  _396
REMARK  162  A    between atoms: _396  and  _397
REMARK  163  A    between atoms: _399  and  _401
REMARK  164  A    between atoms: _401  and  _402
REMARK  165  A    between atoms: _401  and  _404
REMARK  166  A    between atoms: _404  and  _405
REMARK  167  A    between atoms: _408  and  _410
REMARK  168  A    between atoms: _410  and  _411
REMARK  169  A    between atoms: _413  and  _415
REMARK  170  A    between atoms: _415  and  _416
REMARK  171  A    between atoms: _418  and  _420
REMARK  172  A    between atoms: _420  and  _421
REMARK  173  A    between atoms: _420  and  _423
REMARK  174  A    between atoms: _423  and  _424
REMARK  175  A    between atoms: _427  and  _429
REMARK  176  A    between atoms: _429  and  _430
REMARK  177  A    between atoms: _432  and  _434
REMARK  178  A    between atoms: _434  and  _435
REMARK  179  A    between atoms: _437  and  _439
REMARK  180  A    between atoms: _439  and  _440
REMARK  181  A    between atoms: _439  and  _442
REMARK  182  A    between atoms: _442  and  _443
REMARK  183  A    between atoms: _449  and  _451
REMARK  184  A    between atoms: _451  and  _452
REMARK  185  A    between atoms: _451  and  _454
REMARK  186  A    between atoms: _454  and  _455
REMARK  187  A    between atoms: _458  and  _460
REMARK  188  A    between atoms: _460  and  _461
REMARK  189  A    between atoms: _460  and  _463
REMARK  190  A    between atoms: _466  and  _468
REMARK  191  A    between atoms: _468  and  _469
REMARK  192  A    between atoms: _468  and  _471
REMARK  193  A    between atoms: _471  and  _472
REMARK  194  A    between atoms: _475  and  _477
REMARK  195  A    between atoms: _477  and  _478
REMARK  196  A    between atoms: _477  and  _480
REMARK  197  A    between atoms: _480  and  _481
REMARK  198  A    between atoms: _485  and  _486
REMARK  199  A    between atoms: _491  and  _493
REMARK  200  A    between atoms: _493  and  _494
REMARK  201  A    between atoms: _493  and  _496
REMARK  202  A    between atoms: _499  and  _501
REMARK  203  A    between atoms: _501  and  _502
REMARK  204  A    between atoms: _501  and  _504
REMARK  205  A    between atoms: _504  and  _505
REMARK  206  A    between atoms: _510  and  _512
REMARK  207  A    between atoms: _512  and  _513
REMARK  208  A    between atoms: _512  and  _515
REMARK  209  A    between atoms: _515  and  _516
REMARK  210  A    between atoms: _519  and  _521
REMARK  211  A    between atoms: _521  and  _522
REMARK  212  A    between atoms: _521  and  _524
REMARK  213  A    between atoms: _524  and  _525
REMARK  214  A    between atoms: _528  and  _530
REMARK  215  A    between atoms: _530  and  _531
REMARK  216  A    between atoms: _533  and  _535
REMARK  217  A    between atoms: _535  and  _536
REMARK  218  A    between atoms: _535  and  _538
REMARK  219  A    between atoms: _538  and  _539
REMARK  220  A    between atoms: _539  and  _540
REMARK  221  A    between atoms: _540  and  _541
REMARK  222  A    between atoms: _550  and  _552
REMARK  223  A    between atoms: _552  and  _553
REMARK  224  A    between atoms: _552  and  _555
REMARK  225  A    between atoms: _555  and  _556
REMARK                            x       y       z     vdW  Elec       q    Type
REMARK                         _______ _______ _______ _____ _____    ______ ____
ROOT
ATOM      1  CA  LEU A   1       8.085  30.498  16.981  0.00  0.00    +0.133 C 
ENDROOT
BRANCH   1   2
ATOM      2  N   LEU A   1       8.806  31.682  16.584  0.00  0.00    -0.239 NA
ATOM      3  H   LEU A   1       9.421  31.640  15.747  0.00  0.00    +0.142 HD
ENDBRANCH   1   2
BRANCH   1   4
ATOM      4  C   LEU A   1       8.981  29.599  17.801  0.00  0.00    +0.224 C 
ATOM      5  O   LEU A   1      10.165  29.408  17.484  0.00  0.00    -0.287 OA
ENDBRANCH   1   4
BRANCH   1   6
ATOM      6  CB  LEU A   1       7.509  29.728  15.764  0.00  0.00    +0.025 C 
BRANCH   6   7
ATOM      7  CG  LEU A   1       6.888  30.558  14.643  0.00  0.00    +0.002 C 
ATOM      8  CD2 LEU A   1       5.713  31.284  15.229  0.00  0.00    +0.000 C 
ATOM      9  CD1 LEU A   1       6.534  29.725  13.392  0.00  0.00    +0.000 C 
ENDBRANCH   6   7
ENDBRANCH   1   6
TORSDOF 4
REMARK  Name = ../refined-set-2016/1izh/1izh_pocket.pdb
REMARK  225 active torsions:
REMARK  status: ('A' for Active; 'I' for Inactive)
REMARK    1  A    between atoms: _1  and  _3
REMARK    2  A    between atoms: _3  and  _4
REMARK    3  A    between atoms: _3  and  _6
REMARK    4  A    between atoms: _6  and  _7
REMARK    5  A    between atoms: _7  and  _8
REMARK    6  A    between atoms: _8  and  _9
REMARK    7  A    between atoms: _18  and  _20
REMARK    8  A    between atoms: _20  and  _21
REMARK    9  A    between atoms: _20  and  _23
REMARK   10  A    between atoms: _23  and  _24
REMARK   11  A    between atoms: _27  and  _29
REMARK   12  A    between atoms: _29  and  _30
REMARK   13  A    between atoms: _29  and  _32
REMARK   14  A    between atoms: _32  and  _33
REMARK   15  A    between atoms: _36  and  _38
REMARK   16  A    between atoms: _38  and  _39
REMARK   17  A    between atoms: _38  and  _41
REMARK   18  A    between atoms: _41  and  _42
REMARK   19  A    between atoms: _45  and  _47
REMARK   20  A    between atoms: _47  and  _48
REMARK   21  A    between atoms: _47  and  _50
REMARK   22  A    between atoms: _50  and  _51
REMARK   23  A    between atoms: _54  and  _56
REMARK   24  A    between atoms: _56  and  _57
REMARK   25  A    between atoms: _59  and  _61
REMARK   26  A    between atoms: _61  and  _62
REMARK   27  A    between atoms: _65  and  _67
REMARK   28  A    between atoms: _67  and  _68
REMARK   29  A    between atoms: _67  and  _70
REMARK   30  A    between atoms: _70  and  _71
REMARK   31  A    between atoms: _74  and  _76
REMARK   32  A    between atoms: _76  and  _77
REMARK   33  A    between atoms: _76  and  _79
REMARK   34  A    between atoms: _79  and  _80
REMARK   35  A    between atoms: _83  and  _85
REMARK   36  A    between atoms: _85  and  _86
REMARK   37  A    between atoms: _85  and  _88
REMARK   38  A    between atoms: _88  and  _89
REMARK   39  A    between atoms: _92  and  _94
REMARK   40  A    between atoms: _94  and  _95
REMARK   41  A    between atoms: _94  and  _97
REMARK   42  A    between atoms: _100  and  _102
REMARK   43  A    between atoms: _102  and  _103
REMARK   44  A    between atoms: _102  and  _105
REMARK   45  A    between atoms: _105  and  _106
REMARK   46  A    between atoms: _106  and  _107
REMARK   47  A    between atoms: _109  and  _111
REMARK   48  A    between atoms: _111  and  _112
REMARK   49  A    between atoms: _111  and  _114
REMARK   50  A    between atoms: _114  and  _115
REMARK   51  A    between atoms: _118  and  _120
REMARK   52  A    between atoms: _120  and  _121
REMARK   53  A    between atoms: _123  and  _125
REMARK   54  A    between atoms: _125  and  _126
REMARK   55  A    between atoms: _128  and  _130
REMARK   56  A    between atoms: _130  and  _131
REMARK   57  A    between atoms: _130  and  _133
REMARK   58  A    between atoms: _133  and  _134
REMARK   59  A    between atoms: _137  and  _139
REMARK   60  A    between atoms: _139  and  _140
REMARK   61  A    between atoms: _142  and  _144
REMARK   62  A    between atoms: _144  and  _145
REMARK   63  A    between atoms: _147  and  _149
REMARK   64  A    between atoms: _149  and  _150
REMARK   65  A    between atoms: _149  and  _152
REMARK   66  A    between atoms: _152  and  _153
REMARK   67  A    between atoms: _159  and  _161
REMARK   68  A    between atoms: _161  and  _162
REMARK   69  A    between atoms: _161  and  _164
REMARK   70  A    between atoms: _164  and  _165
REMARK   71  A    between atoms: _168  and  _170
REMARK   72  A    between atoms: _170  and  _171
REMARK   73  A    between atoms: _170  and  _173
REMARK   74  A    between atoms: _176  and  _178
REMARK   75  A    between atoms: _178  and  _179
REMARK   76  A    between atoms: _178  and  _181
REMARK   77  A    between atoms: _181  and  _182
REMARK   78  A    between atoms: _186  and  _187
REMARK   79  A    between atoms: _192  and  _194
REMARK   80  A    between atoms: _194  and  _195
REMARK   81  A    between atoms: _194  and  _197
REMARK   82  A    between atoms: _197  and  _198
REMARK   83  A    between atoms: _202  and  _203
REMARK   84  A    between atoms: _208  and  _210
REMARK   85  A    between atoms: _210  and  _211
REMARK   86  A    between atoms: _210  and  _213
REMARK   87  A    between atoms: _216  and  _218
REMARK   88  A    between atoms: _218  and  _219
REMARK   89  A    between atoms: _218  and  _221
REMARK   90  A    between atoms: _221  and  _222
REMARK   91  A    between atoms: _227  and  _229
REMARK   92  A    between atoms: _229  and  _230
REMARK   93  A    between atoms: _229  and  _232
REMARK   94  A    between atoms: _232  and  _233
REMARK   95  A    between atoms: _236  and  _238
REMARK   96  A    between atoms: _238  and  _239
REMARK   97  A    between atoms: _238  and  _241
REMARK   98  A    between atoms: _241  and  _242
REMARK   99  A    between atoms: _245  and  _247
REMARK  100  A    between atoms: _247  and  _248
REMARK  101  A    between atoms: _250  and  _252
REMARK  102  A    between atoms: _252  and  _253
REMARK  103  A    between atoms: _252  and  _255
REMARK  104  A    between atoms: _255  and  _256
REMARK  105  A    between atoms: _256  and  _257
REMARK  106  A    between atoms: _257  and  _258
REMARK  107  A    between atoms: _267  and  _269
REMARK  108  A    between atoms: _269  and  _270
REMARK  109  A    between atoms: _269  and  _272
REMARK  110  A    between atoms: _272  and  _273
REMARK  111  A    between atoms: _278  and  _280
REMARK  112  A    between atoms: _280  and  _281
REMARK  113  A    between atoms: _280  and  _283
REMARK  114  A    between atoms: _283  and  _284
REMARK  115  A    between atoms: _284  and  _285
REMARK  116  A    between atoms: _285  and  _286
REMARK  117  A    between atoms: _295  and  _297
REMARK  118  A    between atoms: _297  and  _298
REMARK  119  A    between atoms: _297  and  _300
REMARK  120  A    between atoms: _300  and  _301
REMARK  121  A    between atoms: _304  and  _306
REMARK  122  A    between atoms: _306  and  _307
REMARK  123  A    between atoms: _306  and  _309
REMARK  124  A    between atoms: _309  and  _310
REMARK  125  A    between atoms: _313  and  _315
REMARK  126  A    between atoms: _315  and  _316
REMARK  127  A    between atoms: _315  and  _318
REMARK  128  A    between atoms: _318  and  _319
REMARK  129  A    between atoms: _322  and  _324
REMARK  130  A    between atoms: _324  and  _325
REMARK  131  A    between atoms: _324  and  _327
REMARK  132  A    between atoms: _327  and  _328
REMARK  133  A    between atoms: _331  and  _333
REMARK  134  A    between atoms: _333  and  _334
REMARK  135  A    between atoms: _336  and  _338
REMARK  136  A    between atoms: _338  and  _339
REMARK  137  A    between atoms: _342  and  _344
REMARK  138  A    between atoms: _344  and  _345
REMARK  139  A    between atoms: _344  and  _347
REMARK  140  A    between atoms: _347  and  _348
REMARK  141  A    between atoms: _351  and  _353
REMARK  142  A    between atoms: _353  and  _354
REMARK  143  A    between atoms: _353  and  _356
REMARK  144  A    between atoms: _356  and  _357
REMARK  145  A    between atoms: _360  and  _362
REMARK  146  A    between atoms: _362  and  _363
REMARK  147  A    between atoms: _362  and  _365
REMARK  148  A    between atoms: _365  and  _366
REMARK  149  A    between atoms: _369  and  _371
REMARK  150  A    between atoms: _371  and  _372
REMARK  151  A    between atoms: _371  and  _374
REMARK  152  A    between atoms: _377  and  _379
REMARK  153  A    between atoms: _379  and  _380
REMARK  154  A    between atoms: _379  and  _382
REMARK  155  A    between atoms: _383  and  _384
REMARK  156  A    between atoms: _384  and  _385
REMARK  157  A    between atoms: _385  and  _386
REMARK  158  A    between atoms: _390  and  _392
REMARK  159  A    between atoms: _392  and  _393
REMARK  160  A    between atoms: _392  and  _395
REMARK  161  A    between atoms: _395  and  _396
REMARK  162  A    between atoms: _396  and  _397
REMARK  163  A    between atoms: _399  and  _401
REMARK  164  A    between atoms: _401  and  _402
REMARK  165  A    between atoms: _401  and  _404
REMARK  166  A    between atoms: _404  and  _405
REMARK  167  A    between atoms: _408  and  _410
REMARK  168  A    between atoms: _410  and  _411
REMARK  169  A    between atoms: _413  and  _415
REMARK  170  A    between atoms: _415  and  _416
REMARK  171  A    between atoms: _418  and  _420
REMARK  172  A    between atoms: _420  and  _421
REMARK  173  A    between atoms: _420  and  _423
REMARK  174  A    between atoms: _423  and  _424
REMARK  175  A    between atoms: _427  and  _429
REMARK  176  A    between atoms: _429  and  _430
REMARK  177  A    between atoms: _432  and  _434
REMARK  178  A    between atoms: _434  and  _435
REMARK  179  A    between atoms: _437  and  _439
REMARK  180  A    between atoms: _439  and  _440
REMARK  181  A    between atoms: _439  and  _442
REMARK  182  A    between atoms: _442  and  _443
REMARK  183  A    between atoms: _449  and  _451
REMARK  184  A    between atoms: _451  and  _452
REMARK  185  A    between atoms: _451  and  _454
REMARK  186  A    between atoms: _454  and  _455
REMARK  187  A    between atoms: _458  and  _460
REMARK  188  A    between atoms: _460  and  _461
REMARK  189  A    between atoms: _460  and  _463
REMARK  190  A    between atoms: _466  and  _468
REMARK  191  A    between atoms: _468  and  _469
REMARK  192  A    between atoms: _468  and  _471
REMARK  193  A    between atoms: _471  and  _472
REMARK  194  A    between atoms: _475  and  _477
REMARK  195  A    between atoms: _477  and  _478
REMARK  196  A    between atoms: _477  and  _480
REMARK  197  A    between atoms: _480  and  _481
REMARK  198  A    between atoms: _485  and  _486
REMARK  199  A    between atoms: _491  and  _493
REMARK  200  A    between atoms: _493  and  _494
REMARK  201  A    between atoms: _493  and  _496
REMARK  202  A    between atoms: _499  and  _501
REMARK  203  A    between atoms: _501  and  _502
REMARK  204  A    between atoms: _501  and  _504
REMARK  205  A    between atoms: _504  and  _505
REMARK  206  A    between atoms: _510  and  _512
REMARK  207  A    between atoms: _512  and  _513
REMARK  208  A    between atoms: _512  and  _515
REMARK  209  A    between atoms: _515  and  _516
REMARK  210  A    between atoms: _519  and  _521
REMARK  211  A    between atoms: _521  and  _522
REMARK  212  A    between atoms: _521  and  _524
REMARK  213  A    between atoms: _524  and  _525
REMARK  214  A    between atoms: _528  and  _530
REMARK  215  A    between atoms: _530  and  _531
REMARK  216  A    between atoms: _533  and  _535
REMARK  217  A    between atoms: _535  and  _536
REMARK  218  A    between atoms: _535  and  _538
REMARK  219  A    between atoms: _538  and  _539
REMARK  220  A    between atoms: _539  and  _540
REMARK  221  A    between atoms: _540  and  _541
REMARK  222  A    between atoms: _550  and  _552
REMARK  223  A    between atoms: _552  and  _553
REMARK  224  A    between atoms: _552  and  _555
REMARK  225  A    between atoms: _555  and  _556
REMARK                            x       y       z     vdW  Elec       q    Type
REMARK                         _______ _______ _______ _____ _____    ______ ____
ROOT
ATOM      1  CA  ILE A   6      16.022  28.155  11.960  0.00  0.00    +0.149 C 
ENDROOT
BRANCH   1   2
ATOM      2  C   ILE A   6      15.721  29.651  11.965  0.00  0.00    +0.241 C 
ATOM      3  O   ILE A   6      14.769  30.101  12.638  0.00  0.00    -0.273 OA
ATOM      4  N   ILE A   7      16.541  30.436  11.274  0.00  0.00    -0.297 N 
ATOM      5  H   ILE A   7      17.427  30.037  10.903  0.00  0.00    +0.150 HD
BRANCH   4   6
ATOM      6  CA  ILE A   7      16.244  31.811  11.024  0.00  0.00    +0.149 C 
BRANCH   6   7
ATOM      7  C   ILE A   7      15.600  31.888   9.646  0.00  0.00    +0.241 C 
ATOM      8  N   GLY A   8      14.361  32.332   9.613  0.00  0.00    -0.295 N 
ATOM      9  H   GLY A   8      13.922  32.687  10.486  0.00  0.00    +0.150 HD
ATOM     10  O   ILE A   7      16.212  31.555   8.655  0.00  0.00    -0.273 OA
BRANCH   8  11
ATOM     11  CA  GLY A   8      13.596  32.334   8.376  0.00  0.00    +0.176 C 
BRANCH  11  12
ATOM     12  C   GLY A   8      13.511  33.647   7.725  0.00  0.00    +0.243 C 
ATOM     13  O   GLY A   8      14.128  34.612   8.184  0.00  0.00    -0.273 OA
ATOM     14  N   ARG A   9      12.729  33.713   6.638  0.00  0.00    -0.297 N 
ATOM     15  H   ARG A   9      12.157  32.888   6.366  0.00  0.00    +0.150 HD
BRANCH  14  16
ATOM     16  CA  ARG A   9      12.671  34.918   5.838  0.00  0.00    +0.149 C 
BRANCH  16  17
ATOM     17  C   ARG A   9      12.161  36.138   6.616  0.00  0.00    +0.241 C 
ATOM     18  N   ASN A  10      11.227  35.951   7.553  0.00  0.00    -0.298 N 
ATOM     19  H   ASN A  10      10.854  34.997   7.733  0.00  0.00    +0.150 HD
ATOM     20  O   ARG A   9      12.652  37.220   6.392  0.00  0.00    -0.273 OA
BRANCH  18  21
ATOM     21  CA  ASN A  10      10.731  37.086   8.323  0.00  0.00    +0.146 C 
BRANCH  21  22
ATOM     22  C   ASN A  10      11.828  37.881   8.974  0.00  0.00    +0.227 C 
ATOM     23  O   ASN A  10      11.614  39.055   9.241  0.00  0.00    -0.286 OA
ENDBRANCH  21  22
BRANCH  21  24
ATOM     24  CB  ASN A  10       9.691  36.662   9.372  0.00  0.00    +0.112 C 
BRANCH  24  25
ATOM     25  CG  ASN A  10      10.283  35.944  10.531  0.00  0.00    +0.222 C 
ATOM     26  ND2 ASN A  10      10.033  36.452  11.751  0.00  0.00    -0.329 N 
ATOM     27 HD21 ASN A  10      10.458  36.015  12.593  0.00  0.00    +0.145 HD
ATOM     28 HD22 ASN A  10       9.414  37.282  11.852  0.00  0.00    +0.145 HD
ATOM     29  OD1 ASN A  10      11.001  34.973  10.358  0.00  0.00    -0.275 OA
ENDBRANCH  24  25
ENDBRANCH  21  24
ENDBRANCH  18  21
ENDBRANCH  16  17
BRANCH  16  30
ATOM     30  CB  ARG A   9      11.861  34.758   4.534  0.00  0.00    +0.033 C 
BRANCH  30  31
ATOM     31  CG  ARG A   9      12.483  33.776   3.537  0.00  0.00    +0.045 C 
BRANCH  31  32
ATOM     32  CD  ARG A   9      11.772  33.730   2.210  0.00  0.00    +0.174 C 
BRANCH  32  33
ATOM     33  NE  ARG A   9      10.403  33.286   2.383  0.00  0.00    -0.265 N 
ATOM     34  HE  ARG A   9      10.242  32.268   2.520  0.00  0.00    +0.259 HD
ATOM     35  CZ  ARG A   9       9.341  34.078   2.380  0.00  0.00    +0.342 C 
ATOM     36  NH2 ARG A   9       8.162  33.537   2.574  0.00  0.00    -0.292 N 
ATOM     37 HH21 ARG A   9       8.079  32.511   2.725  0.00  0.00    +0.255 HD
ATOM     38 HH22 ARG A   9       7.310  34.134   2.577  0.00  0.00    +0.255 HD
ATOM     39  NH1 ARG A   9       9.443  35.395   2.266  0.00  0.00    -0.292 N 
ATOM     40 HH11 ARG A   9       8.587  35.985   2.268  0.00  0.00    +0.255 HD
ATOM     41 HH12 ARG A   9      10.379  35.838   2.175  0.00  0.00    +0.255 HD
ENDBRANCH  32  33
ENDBRANCH  31  32
ENDBRANCH  30  31
ENDBRANCH  16  30
ENDBRANCH  14  16
ENDBRANCH  11  12
ENDBRANCH   8  11
ENDBRANCH   6   7
BRANCH   6  42
ATOM     42  CB  ILE A   7      17.456  32.652  11.027  0.00  0.00    +0.027 C 
ATOM     43  CG2 ILE A   7      17.167  34.084  10.583  0.00  0.00    +0.002 C 
BRANCH  42  44
ATOM     44  CG1 ILE A   7      18.160  32.598  12.369  0.00  0.00    +0.002 C 
ATOM     45  CD1 ILE A   7      17.339  32.869  13.550  0.00  0.00    +0.000 C 
ENDBRANCH  42  44
ENDBRANCH   6  42
ENDBRANCH   4   6
ENDBRANCH   1   2
BRANCH   1  47
ATOM     46  C   ASN A   5      17.221  26.979  13.732  0.00  0.00    +0.241 C 
ATOM     47  N   ILE A   6      16.149  27.634  13.310  0.00  0.00    -0.297 N 
ATOM     48  H   ILE A   6      15.363  27.782  13.975  0.00  0.00    +0.150 HD
ATOM     49  O   ASN A   5      18.224  26.802  13.010  0.00  0.00    -0.273 OA
BRANCH  46  50
ATOM     50  CA  ASN A   5      17.180  26.419  15.174  0.00  0.00    +0.158 C 
BRANCH  50  52
ATOM     51  C   VAL A   4      16.838  24.095  14.619  0.00  0.00    +0.241 C 
ATOM     52  N   ASN A   5      17.623  25.026  15.128  0.00  0.00    -0.297 N 
ATOM     53  H   ASN A   5      18.560  24.768  15.498  0.00  0.00    +0.150 HD
ATOM     54  O   VAL A   4      15.731  24.350  14.102  0.00  0.00    -0.273 OA
BRANCH  51  55
ATOM     55  CA  VAL A   4      17.417  22.653  14.571  0.00  0.00    +0.149 C 
BRANCH  55  58
ATOM     56  C   PRO A   3      16.360  20.509  15.047  0.00  0.00    +0.241 C 
ATOM     57  O   PRO A   3      17.362  20.154  15.616  0.00  0.00    -0.273 OA
ATOM     58  N   VAL A   4      16.288  21.721  14.533  0.00  0.00    -0.297 N 
ATOM     59  H   VAL A   4      15.400  22.025  14.086  0.00  0.00    +0.150 HD
BRANCH  56  63
ATOM     60  C   THR A   2      13.413  21.113  15.941  0.00  0.00    +0.246 C 
ATOM     61  O   THR A   2      14.058  21.205  16.988  0.00  0.00    -0.273 OA
ATOM     62  N   PRO A   3      13.800  20.338  14.931  0.00  0.00    -0.272 N 
ATOM     63  CA  PRO A   3      15.077  19.611  14.954  0.00  0.00    +0.152 C 
ATOM     64  CB  PRO A   3      15.007  18.744  13.672  0.00  0.00    +0.031 C 
ATOM     65  CG  PRO A   3      13.534  18.703  13.310  0.00  0.00    +0.024 C 
ATOM     66  CD  PRO A   3      12.983  20.009  13.741  0.00  0.00    +0.094 C 
BRANCH  60  67
ATOM     67  CA  THR A   2      12.080  21.912  15.758  0.00  0.00    +0.176 C 
BRANCH  67  69
ATOM     68  C   PRO A   1      10.776  20.820  17.479  0.00  0.00    +0.239 C 
ATOM     69  N   THR A   2      11.399  21.910  17.035  0.00  0.00    -0.295 N 
ATOM     70  H   THR A   2      11.396  22.773  17.615  0.00  0.00    +0.150 HD
ATOM     71  O   PRO A   1      10.728  19.770  16.784  0.00  0.00    -0.274 OA
BRANCH  68  76
ATOM     72  N   PRO A   1       9.224  22.042  19.123  0.00  0.00    -0.210 NA
ATOM     73  CD  PRO A   1       7.827  21.571  19.136  0.00  0.00    +0.089 C 
ATOM     74  CG  PRO A   1       7.901  20.110  18.955  0.00  0.00    +0.021 C 
ATOM     75  CB  PRO A   1       9.323  19.702  19.281  0.00  0.00    +0.028 C 
ATOM     76  CA  PRO A   1      10.167  20.933  18.916  0.00  0.00    +0.149 C 
ENDBRANCH  68  76
ENDBRANCH  67  69
BRANCH  67  77
ATOM     77  CB  THR A   2      12.298  23.327  15.255  0.00  0.00    +0.137 C 
ATOM     78  CG2 THR A   2      13.079  24.214  16.252  0.00  0.00    +0.034 C 
BRANCH  77  79
ATOM     79  OG1 THR A   2      13.069  23.305  14.057  0.00  0.00    -0.382 OA
ATOM     80  HG1 THR A   2      13.947  22.884  14.238  0.00  0.00    +0.210 HD
ENDBRANCH  77  79
ENDBRANCH  67  77
ENDBRANCH  60  67
ENDBRANCH  56  63
ENDBRANCH  55  58
BRANCH  55  81
ATOM     81  CB  VAL A   4      18.324  22.487  13.313  0.00  0.00    +0.027 C 
ATOM     82  CG2 VAL A   4      19.653  23.276  13.425  0.00  0.00    +0.002 C 
ATOM     83  CG1 VAL A   4      17.638  22.905  12.038  0.00  0.00    +0.002 C 
ENDBRANCH  55  81
ENDBRANCH  51  55
ENDBRANCH  50  52
BRANCH  50  84
ATOM     84  CB  ASN A   5      18.043  27.226  16.095  0.00  0.00    +0.114 C 
BRANCH  84  85
ATOM     85  CG  ASN A   5      17.898  26.816  17.609  0.00  0.00    +0.222 C 
ATOM     86  ND2 ASN A   5      18.987  26.960  18.350  0.00  0.00    -0.329 N 
ATOM     87 HD21 ASN A   5      18.975  26.681  19.352  0.00  0.00    +0.145 HD
ATOM     88 HD22 ASN A   5      19.854  27.352  17.930  0.00  0.00    +0.145 HD
ATOM     89  OD1 ASN A   5      16.859  26.362  18.056  0.00  0.00    -0.275 OA
ENDBRANCH  84  85
ENDBRANCH  50  84
ENDBRANCH  46  50
ENDBRANCH   1  47
BRANCH   1  90
ATOM     90  CB  ILE A   6      14.864  27.394  11.264  0.00  0.00    +0.027 C 
ATOM     91  CG2 ILE A   6      14.406  28.086   9.955  0.00  0.00    +0.002 C 
BRANCH  90  92
ATOM     92  CG1 ILE A   6      15.252  25.967  10.971  0.00  0.00    +0.002 C 
ATOM     93  CD1 ILE A   6      14.021  25.033  10.831  0.00  0.00    +0.000 C 
ENDBRANCH  90  92
ENDBRANCH   1  90
TORSDOF 33
REMARK  Name = ../refined-set-2016/1izh/1izh_pocket.pdb
REMARK  225 active torsions:
REMARK  status: ('A' for Active; 'I' for Inactive)
REMARK    1  A    between atoms: _1  and  _3
REMARK    2  A    between atoms: _3  and  _4
REMARK    3  A    between atoms: _3  and  _6
REMARK    4  A    between atoms: _6  and  _7
REMARK    5  A    between atoms: _7  and  _8
REMARK    6  A    between atoms: _8  and  _9
REMARK    7  A    between atoms: _18  and  _20
REMARK    8  A    between atoms: _20  and  _21
REMARK    9  A    between atoms: _20  and  _23
REMARK   10  A    between atoms: _23  and  _24
REMARK   11  A    between atoms: _27  and  _29
REMARK   12  A    between atoms: _29  and  _30
REMARK   13  A    between atoms: _29  and  _32
REMARK   14  A    between atoms: _32  and  _33
REMARK   15  A    between atoms: _36  and  _38
REMARK   16  A    between atoms: _38  and  _39
REMARK   17  A    between atoms: _38  and  _41
REMARK   18  A    between atoms: _41  and  _42
REMARK   19  A    between atoms: _45  and  _47
REMARK   20  A    between atoms: _47  and  _48
REMARK   21  A    between atoms: _47  and  _50
REMARK   22  A    between atoms: _50  and  _51
REMARK   23  A    between atoms: _54  and  _56
REMARK   24  A    between atoms: _56  and  _57
REMARK   25  A    between atoms: _59  and  _61
REMARK   26  A    between atoms: _61  and  _62
REMARK   27  A    between atoms: _65  and  _67
REMARK   28  A    between atoms: _67  and  _68
REMARK   29  A    between atoms: _67  and  _70
REMARK   30  A    between atoms: _70  and  _71
REMARK   31  A    between atoms: _74  and  _76
REMARK   32  A    between atoms: _76  and  _77
REMARK   33  A    between atoms: _76  and  _79
REMARK   34  A    between atoms: _79  and  _80
REMARK   35  A    between atoms: _83  and  _85
REMARK   36  A    between atoms: _85  and  _86
REMARK   37  A    between atoms: _85  and  _88
REMARK   38  A    between atoms: _88  and  _89
REMARK   39  A    between atoms: _92  and  _94
REMARK   40  A    between atoms: _94  and  _95
REMARK   41  A    between atoms: _94  and  _97
REMARK   42  A    between atoms: _100  and  _102
REMARK   43  A    between atoms: _102  and  _103
REMARK   44  A    between atoms: _102  and  _105
REMARK   45  A    between atoms: _105  and  _106
REMARK   46  A    between atoms: _106  and  _107
REMARK   47  A    between atoms: _109  and  _111
REMARK   48  A    between atoms: _111  and  _112
REMARK   49  A    between atoms: _111  and  _114
REMARK   50  A    between atoms: _114  and  _115
REMARK   51  A    between atoms: _118  and  _120
REMARK   52  A    between atoms: _120  and  _121
REMARK   53  A    between atoms: _123  and  _125
REMARK   54  A    between atoms: _125  and  _126
REMARK   55  A    between atoms: _128  and  _130
REMARK   56  A    between atoms: _130  and  _131
REMARK   57  A    between atoms: _130  and  _133
REMARK   58  A    between atoms: _133  and  _134
REMARK   59  A    between atoms: _137  and  _139
REMARK   60  A    between atoms: _139  and  _140
REMARK   61  A    between atoms: _142  and  _144
REMARK   62  A    between atoms: _144  and  _145
REMARK   63  A    between atoms: _147  and  _149
REMARK   64  A    between atoms: _149  and  _150
REMARK   65  A    between atoms: _149  and  _152
REMARK   66  A    between atoms: _152  and  _153
REMARK   67  A    between atoms: _159  and  _161
REMARK   68  A    between atoms: _161  and  _162
REMARK   69  A    between atoms: _161  and  _164
REMARK   70  A    between atoms: _164  and  _165
REMARK   71  A    between atoms: _168  and  _170
REMARK   72  A    between atoms: _170  and  _171
REMARK   73  A    between atoms: _170  and  _173
REMARK   74  A    between atoms: _176  and  _178
REMARK   75  A    between atoms: _178  and  _179
REMARK   76  A    between atoms: _178  and  _181
REMARK   77  A    between atoms: _181  and  _182
REMARK   78  A    between atoms: _186  and  _187
REMARK   79  A    between atoms: _192  and  _194
REMARK   80  A    between atoms: _194  and  _195
REMARK   81  A    between atoms: _194  and  _197
REMARK   82  A    between atoms: _197  and  _198
REMARK   83  A    between atoms: _202  and  _203
REMARK   84  A    between atoms: _208  and  _210
REMARK   85  A    between atoms: _210  and  _211
REMARK   86  A    between atoms: _210  and  _213
REMARK   87  A    between atoms: _216  and  _218
REMARK   88  A    between atoms: _218  and  _219
REMARK   89  A    between atoms: _218  and  _221
REMARK   90  A    between atoms: _221  and  _222
REMARK   91  A    between atoms: _227  and  _229
REMARK   92  A    between atoms: _229  and  _230
REMARK   93  A    between atoms: _229  and  _232
REMARK   94  A    between atoms: _232  and  _233
REMARK   95  A    between atoms: _236  and  _238
REMARK   96  A    between atoms: _238  and  _239
REMARK   97  A    between atoms: _238  and  _241
REMARK   98  A    between atoms: _241  and  _242
REMARK   99  A    between atoms: _245  and  _247
REMARK  100  A    between atoms: _247  and  _248
REMARK  101  A    between atoms: _250  and  _252
REMARK  102  A    between atoms: _252  and  _253
REMARK  103  A    between atoms: _252  and  _255
REMARK  104  A    between atoms: _255  and  _256
REMARK  105  A    between atoms: _256  and  _257
REMARK  106  A    between atoms: _257  and  _258
REMARK  107  A    between atoms: _267  and  _269
REMARK  108  A    between atoms: _269  and  _270
REMARK  109  A    between atoms: _269  and  _272
REMARK  110  A    between atoms: _272  and  _273
REMARK  111  A    between atoms: _278  and  _280
REMARK  112  A    between atoms: _280  and  _281
REMARK  113  A    between atoms: _280  and  _283
REMARK  114  A    between atoms: _283  and  _284
REMARK  115  A    between atoms: _284  and  _285
REMARK  116  A    between atoms: _285  and  _286
REMARK  117  A    between atoms: _295  and  _297
REMARK  118  A    between atoms: _297  and  _298
REMARK  119  A    between atoms: _297  and  _300
REMARK  120  A    between atoms: _300  and  _301
REMARK  121  A    between atoms: _304  and  _306
REMARK  122  A    between atoms: _306  and  _307
REMARK  123  A    between atoms: _306  and  _309
REMARK  124  A    between atoms: _309  and  _310
REMARK  125  A    between atoms: _313  and  _315
REMARK  126  A    between atoms: _315  and  _316
REMARK  127  A    between atoms: _315  and  _318
REMARK  128  A    between atoms: _318  and  _319
REMARK  129  A    between atoms: _322  and  _324
REMARK  130  A    between atoms: _324  and  _325
REMARK  131  A    between atoms: _324  and  _327
REMARK  132  A    between atoms: _327  and  _328
REMARK  133  A    between atoms: _331  and  _333
REMARK  134  A    between atoms: _333  and  _334
REMARK  135  A    between atoms: _336  and  _338
REMARK  136  A    between atoms: _338  and  _339
REMARK  137  A    between atoms: _342  and  _344
REMARK  138  A    between atoms: _344  and  _345
REMARK  139  A    between atoms: _344  and  _347
REMARK  140  A    between atoms: _347  and  _348
REMARK  141  A    between atoms: _351  and  _353
REMARK  142  A    between atoms: _353  and  _354
REMARK  143  A    between atoms: _353  and  _356
REMARK  144  A    between atoms: _356  and  _357
REMARK  145  A    between atoms: _360  and  _362
REMARK  146  A    between atoms: _362  and  _363
REMARK  147  A    between atoms: _362  and  _365
REMARK  148  A    between atoms: _365  and  _366
REMARK  149  A    between atoms: _369  and  _371
REMARK  150  A    between atoms: _371  and  _372
REMARK  151  A    between atoms: _371  and  _374
REMARK  152  A    between atoms: _377  and  _379
REMARK  153  A    between atoms: _379  and  _380
REMARK  154  A    between atoms: _379  and  _382
REMARK  155  A    between atoms: _383  and  _384
REMARK  156  A    between atoms: _384  and  _385
REMARK  157  A    between atoms: _385  and  _386
REMARK  158  A    between atoms: _390  and  _392
REMARK  159  A    between atoms: _392  and  _393
REMARK  160  A    between atoms: _392  and  _395
REMARK  161  A    between atoms: _395  and  _396
REMARK  162  A    between atoms: _396  and  _397
REMARK  163  A    between atoms: _399  and  _401
REMARK  164  A    between atoms: _401  and  _402
REMARK  165  A    between atoms: _401  and  _404
REMARK  166  A    between atoms: _404  and  _405
REMARK  167  A    between atoms: _408  and  _410
REMARK  168  A    between atoms: _410  and  _411
REMARK  169  A    between atoms: _413  and  _415
REMARK  170  A    between atoms: _415  and  _416
REMARK  171  A    between atoms: _418  and  _420
REMARK  172  A    between atoms: _420  and  _421
REMARK  173  A    between atoms: _420  and  _423
REMARK  174  A    between atoms: _423  and  _424
REMARK  175  A    between atoms: _427  and  _429
REMARK  176  A    between atoms: _429  and  _430
REMARK  177  A    between atoms: _432  and  _434
REMARK  178  A    between atoms: _434  and  _435
REMARK  179  A    between atoms: _437  and  _439
REMARK  180  A    between atoms: _439  and  _440
REMARK  181  A    between atoms: _439  and  _442
REMARK  182  A    between atoms: _442  and  _443
REMARK  183  A    between atoms: _449  and  _451
REMARK  184  A    between atoms: _451  and  _452
REMARK  185  A    between atoms: _451  and  _454
REMARK  186  A    between atoms: _454  and  _455
REMARK  187  A    between atoms: _458  and  _460
REMARK  188  A    between atoms: _460  and  _461
REMARK  189  A    between atoms: _460  and  _463
REMARK  190  A    between atoms: _466  and  _468
REMARK  191  A    between atoms: _468  and  _469
REMARK  192  A    between atoms: _468  and  _471
REMARK  193  A    between atoms: _471  and  _472
REMARK  194  A    between atoms: _475  and  _477
REMARK  195  A    between atoms: _477  and  _478
REMARK  196  A    between atoms: _477  and  _480
REMARK  197  A    between atoms: _480  and  _481
REMARK  198  A    between atoms: _485  and  _486
REMARK  199  A    between atoms: _491  and  _493
REMARK  200  A    between atoms: _493  and  _494
REMARK  201  A    between atoms: _493  and  _496
REMARK  202  A    between atoms: _499  and  _501
REMARK  203  A    between atoms: _501  and  _502
REMARK  204  A    between atoms: _501  and  _504
REMARK  205  A    between atoms: _504  and  _505
REMARK  206  A    between atoms: _510  and  _512
REMARK  207  A    between atoms: _512  and  _513
REMARK  208  A    between atoms: _512  and  _515
REMARK  209  A    between atoms: _515  and  _516
REMARK  210  A    between atoms: _519  and  _521
REMARK  211  A    between atoms: _521  and  _522
REMARK  212  A    between atoms: _521  and  _524
REMARK  213  A    between atoms: _524  and  _525
REMARK  214  A    between atoms: _528  and  _530
REMARK  215  A    between atoms: _530  and  _531
REMARK  216  A    between atoms: _533  and  _535
REMARK  217  A    between atoms: _535  and  _536
REMARK  218  A    between atoms: _535  and  _538
REMARK  219  A    between atoms: _538  and  _539
REMARK  220  A    between atoms: _539  and  _540
REMARK  221  A    between atoms: _540  and  _541
REMARK  222  A    between atoms: _550  and  _552
REMARK  223  A    between atoms: _552  and  _553
REMARK  224  A    between atoms: _552  and  _555
REMARK  225  A    between atoms: _555  and  _556
REMARK                            x       y       z     vdW  Elec       q    Type
REMARK                         _______ _______ _______ _____ _____    ______ ____
ROOT
ATOM      1  NE  ARG A   1       6.695  29.764   0.819  0.00  0.00    -0.265 N 
ATOM      2  HE  ARG A   1       6.777  30.409   1.631  0.00  0.00    +0.259 HD
ATOM      3  CZ  ARG A   1       5.955  28.679   0.965  0.00  0.00    +0.342 C 
ATOM      4  NH2 ARG A   1       5.359  28.477   2.100  0.00  0.00    -0.292 N 
ATOM      5 HH21 ARG A   1       5.468  29.163   2.874  0.00  0.00    +0.255 HD
ATOM      6 HH22 ARG A   1       4.772  27.629   2.235  0.00  0.00    +0.255 HD
ATOM      7  NH1 ARG A   1       5.829  27.771  -0.014  0.00  0.00    -0.292 N 
ATOM      8 HH11 ARG A   1       5.239  26.927   0.132  0.00  0.00    +0.255 HD
ATOM      9 HH12 ARG A   1       6.321  27.911  -0.919  0.00  0.00    +0.255 HD
ENDROOT
BRANCH   1  10
ATOM     10  CD  ARG A   1       7.396  30.113  -0.392  0.00  0.00    +0.174 C 
BRANCH  10  11
ATOM     11  CG  ARG A   1       8.099  31.413  -0.243  0.00  0.00    +0.045 C 
BRANCH  11  12
ATOM     12  CB  ARG A   1       8.895  31.776  -1.434  0.00  0.00    +0.029 C 
BRANCH  12  13
ATOM     13  CA  ARG A   1       9.780  33.001  -1.256  0.00  0.00    +0.133 C 
BRANCH  13  14
ATOM     14  N   ARG A   1       8.955  34.209  -1.039  0.00  0.00    -0.239 NA
ATOM     15  H   ARG A   1       7.919  34.138  -0.978  0.00  0.00    +0.142 HD
ENDBRANCH  13  14
BRANCH  13  16
ATOM     16  C   ARG A   1      10.649  33.113  -2.492  0.00  0.00    +0.224 C 
ATOM     17  O   ARG A   1      10.200  33.598  -3.547  0.00  0.00    -0.287 OA
ENDBRANCH  13  16
ENDBRANCH  12  13
ENDBRANCH  11  12
ENDBRANCH  10  11
ENDBRANCH   1  10
TORSDOF 6
REMARK  Name = ../refined-set-2016/1izh/1izh_pocket.pdb
REMARK  225 active torsions:
REMARK  status: ('A' for Active; 'I' for Inactive)
REMARK    1  A    between atoms: _1  and  _3
REMARK    2  A    between atoms: _3  and  _4
REMARK    3  A    between atoms: _3  and  _6
REMARK    4  A    between atoms: _6  and  _7
REMARK    5  A    between atoms: _7  and  _8
REMARK    6  A    between atoms: _8  and  _9
REMARK    7  A    between atoms: _18  and  _20
REMARK    8  A    between atoms: _20  and  _21
REMARK    9  A    between atoms: _20  and  _23
REMARK   10  A    between atoms: _23  and  _24
REMARK   11  A    between atoms: _27  and  _29
REMARK   12  A    between atoms: _29  and  _30
REMARK   13  A    between atoms: _29  and  _32
REMARK   14  A    between atoms: _32  and  _33
REMARK   15  A    between atoms: _36  and  _38
REMARK   16  A    between atoms: _38  and  _39
REMARK   17  A    between atoms: _38  and  _41
REMARK   18  A    between atoms: _41  and  _42
REMARK   19  A    between atoms: _45  and  _47
REMARK   20  A    between atoms: _47  and  _48
REMARK   21  A    between atoms: _47  and  _50
REMARK   22  A    between atoms: _50  and  _51
REMARK   23  A    between atoms: _54  and  _56
REMARK   24  A    between atoms: _56  and  _57
REMARK   25  A    between atoms: _59  and  _61
REMARK   26  A    between atoms: _61  and  _62
REMARK   27  A    between atoms: _65  and  _67
REMARK   28  A    between atoms: _67  and  _68
REMARK   29  A    between atoms: _67  and  _70
REMARK   30  A    between atoms: _70  and  _71
REMARK   31  A    between atoms: _74  and  _76
REMARK   32  A    between atoms: _76  and  _77
REMARK   33  A    between atoms: _76  and  _79
REMARK   34  A    between atoms: _79  and  _80
REMARK   35  A    between atoms: _83  and  _85
REMARK   36  A    between atoms: _85  and  _86
REMARK   37  A    between atoms: _85  and  _88
REMARK   38  A    between atoms: _88  and  _89
REMARK   39  A    between atoms: _92  and  _94
REMARK   40  A    between atoms: _94  and  _95
REMARK   41  A    between atoms: _94  and  _97
REMARK   42  A    between atoms: _100  and  _102
REMARK   43  A    between atoms: _102  and  _103
REMARK   44  A    between atoms: _102  and  _105
REMARK   45  A    between atoms: _105  and  _106
REMARK   46  A    between atoms: _106  and  _107
REMARK   47  A    between atoms: _109  and  _111
REMARK   48  A    between atoms: _111  and  _112
REMARK   49  A    between atoms: _111  and  _114
REMARK   50  A    between atoms: _114  and  _115
REMARK   51  A    between atoms: _118  and  _120
REMARK   52  A    between atoms: _120  and  _121
REMARK   53  A    between atoms: _123  and  _125
REMARK   54  A    between atoms: _125  and  _126
REMARK   55  A    between atoms: _128  and  _130
REMARK   56  A    between atoms: _130  and  _131
REMARK   57  A    between atoms: _130  and  _133
REMARK   58  A    between atoms: _133  and  _134
REMARK   59  A    between atoms: _137  and  _139
REMARK   60  A    between atoms: _139  and  _140
REMARK   61  A    between atoms: _142  and  _144
REMARK   62  A    between atoms: _144  and  _145
REMARK   63  A    between atoms: _147  and  _149
REMARK   64  A    between atoms: _149  and  _150
REMARK   65  A    between atoms: _149  and  _152
REMARK   66  A    between atoms: _152  and  _153
REMARK   67  A    between atoms: _159  and  _161
REMARK   68  A    between atoms: _161  and  _162
REMARK   69  A    between atoms: _161  and  _164
REMARK   70  A    between atoms: _164  and  _165
REMARK   71  A    between atoms: _168  and  _170
REMARK   72  A    between atoms: _170  and  _171
REMARK   73  A    between atoms: _170  and  _173
REMARK   74  A    between atoms: _176  and  _178
REMARK   75  A    between atoms: _178  and  _179
REMARK   76  A    between atoms: _178  and  _181
REMARK   77  A    between atoms: _181  and  _182
REMARK   78  A    between atoms: _186  and  _187
REMARK   79  A    between atoms: _192  and  _194
REMARK   80  A    between atoms: _194  and  _195
REMARK   81  A    between atoms: _194  and  _197
REMARK   82  A    between atoms: _197  and  _198
REMARK   83  A    between atoms: _202  and  _203
REMARK   84  A    between atoms: _208  and  _210
REMARK   85  A    between atoms: _210  and  _211
REMARK   86  A    between atoms: _210  and  _213
REMARK   87  A    between atoms: _216  and  _218
REMARK   88  A    between atoms: _218  and  _219
REMARK   89  A    between atoms: _218  and  _221
REMARK   90  A    between atoms: _221  and  _222
REMARK   91  A    between atoms: _227  and  _229
REMARK   92  A    between atoms: _229  and  _230
REMARK   93  A    between atoms: _229  and  _232
REMARK   94  A    between atoms: _232  and  _233
REMARK   95  A    between atoms: _236  and  _238
REMARK   96  A    between atoms: _238  and  _239
REMARK   97  A    between atoms: _238  and  _241
REMARK   98  A    between atoms: _241  and  _242
REMARK   99  A    between atoms: _245  and  _247
REMARK  100  A    between atoms: _247  and  _248
REMARK  101  A    between atoms: _250  and  _252
REMARK  102  A    between atoms: _252  and  _253
REMARK  103  A    between atoms: _252  and  _255
REMARK  104  A    between atoms: _255  and  _256
REMARK  105  A    between atoms: _256  and  _257
REMARK  106  A    between atoms: _257  and  _258
REMARK  107  A    between atoms: _267  and  _269
REMARK  108  A    between atoms: _269  and  _270
REMARK  109  A    between atoms: _269  and  _272
REMARK  110  A    between atoms: _272  and  _273
REMARK  111  A    between atoms: _278  and  _280
REMARK  112  A    between atoms: _280  and  _281
REMARK  113  A    between atoms: _280  and  _283
REMARK  114  A    between atoms: _283  and  _284
REMARK  115  A    between atoms: _284  and  _285
REMARK  116  A    between atoms: _285  and  _286
REMARK  117  A    between atoms: _295  and  _297
REMARK  118  A    between atoms: _297  and  _298
REMARK  119  A    between atoms: _297  and  _300
REMARK  120  A    between atoms: _300  and  _301
REMARK  121  A    between atoms: _304  and  _306
REMARK  122  A    between atoms: _306  and  _307
REMARK  123  A    between atoms: _306  and  _309
REMARK  124  A    between atoms: _309  and  _310
REMARK  125  A    between atoms: _313  and  _315
REMARK  126  A    between atoms: _315  and  _316
REMARK  127  A    between atoms: _315  and  _318
REMARK  128  A    between atoms: _318  and  _319
REMARK  129  A    between atoms: _322  and  _324
REMARK  130  A    between atoms: _324  and  _325
REMARK  131  A    between atoms: _324  and  _327
REMARK  132  A    between atoms: _327  and  _328
REMARK  133  A    between atoms: _331  and  _333
REMARK  134  A    between atoms: _333  and  _334
REMARK  135  A    between atoms: _336  and  _338
REMARK  136  A    between atoms: _338  and  _339
REMARK  137  A    between atoms: _342  and  _344
REMARK  138  A    between atoms: _344  and  _345
REMARK  139  A    between atoms: _344  and  _347
REMARK  140  A    between atoms: _347  and  _348
REMARK  141  A    between atoms: _351  and  _353
REMARK  142  A    between atoms: _353  and  _354
REMARK  143  A    between atoms: _353  and  _356
REMARK  144  A    between atoms: _356  and  _357
REMARK  145  A    between atoms: _360  and  _362
REMARK  146  A    between atoms: _362  and  _363
REMARK  147  A    between atoms: _362  and  _365
REMARK  148  A    between atoms: _365  and  _366
REMARK  149  A    between atoms: _369  and  _371
REMARK  150  A    between atoms: _371  and  _372
REMARK  151  A    between atoms: _371  and  _374
REMARK  152  A    between atoms: _377  and  _379
REMARK  153  A    between atoms: _379  and  _380
REMARK  154  A    between atoms: _379  and  _382
REMARK  155  A    between atoms: _383  and  _384
REMARK  156  A    between atoms: _384  and  _385
REMARK  157  A    between atoms: _385  and  _386
REMARK  158  A    between atoms: _390  and  _392
REMARK  159  A    between atoms: _392  and  _393
REMARK  160  A    between atoms: _392  and  _395
REMARK  161  A    between atoms: _395  and  _396
REMARK  162  A    between atoms: _396  and  _397
REMARK  163  A    between atoms: _399  and  _401
REMARK  164  A    between atoms: _401  and  _402
REMARK  165  A    between atoms: _401  and  _404
REMARK  166  A    between atoms: _404  and  _405
REMARK  167  A    between atoms: _408  and  _410
REMARK  168  A    between atoms: _410  and  _411
REMARK  169  A    between atoms: _413  and  _415
REMARK  170  A    between atoms: _415  and  _416
REMARK  171  A    between atoms: _418  and  _420
REMARK  172  A    between atoms: _420  and  _421
REMARK  173  A    between atoms: _420  and  _423
REMARK  174  A    between atoms: _423  and  _424
REMARK  175  A    between atoms: _427  and  _429
REMARK  176  A    between atoms: _429  and  _430
REMARK  177  A    between atoms: _432  and  _434
REMARK  178  A    between atoms: _434  and  _435
REMARK  179  A    between atoms: _437  and  _439
REMARK  180  A    between atoms: _439  and  _440
REMARK  181  A    between atoms: _439  and  _442
REMARK  182  A    between atoms: _442  and  _443
REMARK  183  A    between atoms: _449  and  _451
REMARK  184  A    between atoms: _451  and  _452
REMARK  185  A    between atoms: _451  and  _454
REMARK  186  A    between atoms: _454  and  _455
REMARK  187  A    between atoms: _458  and  _460
REMARK  188  A    between atoms: _460  and  _461
REMARK  189  A    between atoms: _460  and  _463
REMARK  190  A    between atoms: _466  and  _468
REMARK  191  A    between atoms: _468  and  _469
REMARK  192  A    between atoms: _468  and  _471
REMARK  193  A    between atoms: _471  and  _472
REMARK  194  A    between atoms: _475  and  _477
REMARK  195  A    between atoms: _477  and  _478
REMARK  196  A    between atoms: _477  and  _480
REMARK  197  A    between atoms: _480  and  _481
REMARK  198  A    between atoms: _485  and  _486
REMARK  199  A    between atoms: _491  and  _493
REMARK  200  A    between atoms: _493  and  _494
REMARK  201  A    between atoms: _493  and  _496
REMARK  202  A    between atoms: _499  and  _501
REMARK  203  A    between atoms: _501  and  _502
REMARK  204  A    between atoms: _501  and  _504
REMARK  205  A    between atoms: _504  and  _505
REMARK  206  A    between atoms: _510  and  _512
REMARK  207  A    between atoms: _512  and  _513
REMARK  208  A    between atoms: _512  and  _515
REMARK  209  A    between atoms: _515  and  _516
REMARK  210  A    between atoms: _519  and  _521
REMARK  211  A    between atoms: _521  and  _522
REMARK  212  A    between atoms: _521  and  _524
REMARK  213  A    between atoms: _524  and  _525
REMARK  214  A    between atoms: _528  and  _530
REMARK  215  A    between atoms: _530  and  _531
REMARK  216  A    between atoms: _533  and  _535
REMARK  217  A    between atoms: _535  and  _536
REMARK  218  A    between atoms: _535  and  _538
REMARK  219  A    between atoms: _538  and  _539
REMARK  220  A    between atoms: _539  and  _540
REMARK  221  A    between atoms: _540  and  _541
REMARK  222  A    between atoms: _550  and  _552
REMARK  223  A    between atoms: _552  and  _553
REMARK  224  A    between atoms: _552  and  _555
REMARK  225  A    between atoms: _555  and  _556
REMARK                            x       y       z     vdW  Elec       q    Type
REMARK                         _______ _______ _______ _____ _____    ______ ____
ROOT
ATOM      1  C   GLY A   5      18.258  23.819   4.510  0.00  0.00    +0.243 C 
ATOM      2  O   GLY A   5      18.141  22.943   5.375  0.00  0.00    -0.273 OA
ATOM      3  N   ALA A   6      18.250  23.544   3.206  0.00  0.00    -0.297 N 
ATOM      4  H   ALA A   6      18.257  24.328   2.522  0.00  0.00    +0.150 HD
ENDROOT
BRANCH   3   5
ATOM      5  CA  ALA A   6      18.231  22.155   2.709  0.00  0.00    +0.149 C 
ATOM      6  CB  ALA A   6      17.219  22.035   1.568  0.00  0.00    +0.031 C 
BRANCH   5   7
ATOM      7  C   ALA A   6      19.602  21.668   2.274  0.00  0.00    +0.241 C 
ATOM      8  N   ASP A   7      20.055  20.548   2.833  0.00  0.00    -0.297 N 
ATOM      9  H   ASP A   7      19.513  20.086   3.591  0.00  0.00    +0.150 HD
ATOM     10  O   ALA A   6      20.261  22.285   1.414  0.00  0.00    -0.273 OA
BRANCH   8  11
ATOM     11  CA  ASP A   7      21.319  19.970   2.377  0.00  0.00    +0.160 C 
BRANCH  11  12
ATOM     12  C   ASP A   7      21.251  19.509   0.925  0.00  0.00    +0.241 C 
ATOM     13  N   ASP A   8      20.110  18.927   0.578  0.00  0.00    -0.297 N 
ATOM     14  H   ASP A   8      19.332  18.941   1.268  0.00  0.00    +0.150 HD
ATOM     15  O   ASP A   7      22.203  19.650   0.154  0.00  0.00    -0.273 OA
BRANCH  13  16
ATOM     16  CA  ASP A   8      19.872  18.279  -0.681  0.00  0.00    +0.160 C 
BRANCH  16  17
ATOM     17  C   ASP A   8      18.780  18.959  -1.518  0.00  0.00    +0.241 C 
ATOM     18  O   ASP A   8      17.957  19.740  -1.022  0.00  0.00    -0.273 OA
ATOM     19  N   THR A   9      18.698  18.547  -2.767  0.00  0.00    -0.295 N 
ATOM     20  H   THR A   9      19.430  17.899  -3.122  0.00  0.00    +0.150 HD
BRANCH  19  21
ATOM     21  CA  THR A   9      17.646  18.948  -3.667  0.00  0.00    +0.176 C 
BRANCH  21  22
ATOM     22  C   THR A   9      16.586  17.841  -3.722  0.00  0.00    +0.243 C 
ATOM     23  N   VAL A  10      15.332  18.209  -3.489  0.00  0.00    -0.298 N 
ATOM     24  H   VAL A  10      15.117  19.217  -3.348  0.00  0.00    +0.150 HD
ATOM     25  O   THR A   9      16.899  16.670  -3.927  0.00  0.00    -0.273 OA
BRANCH  23  26
ATOM     26  CA  VAL A  10      14.268  17.252  -3.427  0.00  0.00    +0.137 C 
BRANCH  26  27
ATOM     27  CB  VAL A  10      13.769  17.003  -1.975  0.00  0.00    +0.026 C 
ATOM     28  CG2 VAL A  10      14.953  16.823  -1.047  0.00  0.00    +0.002 C 
ATOM     29  CG1 VAL A  10      12.858  15.776  -1.980  0.00  0.00    +0.002 C 
ENDBRANCH  26  27
BRANCH  26  30
ATOM     30  C   VAL A  10      13.115  17.771  -4.295  0.00  0.00    +0.227 C 
ATOM     31  O   VAL A  10      12.604  18.893  -4.078  0.00  0.00    -0.286 OA
ENDBRANCH  26  30
ENDBRANCH  23  26
ENDBRANCH  21  22
BRANCH  21  32
ATOM     32  CB  THR A   9      18.326  19.175  -5.047  0.00  0.00    +0.137 C 
ATOM     33  CG2 THR A   9      17.316  19.443  -6.206  0.00  0.00    +0.034 C 
BRANCH  32  34
ATOM     34  OG1 THR A   9      19.191  20.327  -4.984  0.00  0.00    -0.382 OA
ATOM     35  HG1 THR A   9      19.888  20.178  -4.297  0.00  0.00    +0.210 HD
ENDBRANCH  32  34
ENDBRANCH  21  32
ENDBRANCH  19  21
ENDBRANCH  16  17
BRANCH  16  36
ATOM     36  CB  ASP A   8      19.407  16.843  -0.385  0.00  0.00    +0.143 C 
BRANCH  36  37
ATOM     37  CG  ASP A   8      20.428  16.062   0.438  0.00  0.00    +0.367 C 
ATOM     38  OD2 ASP A   8      20.026  15.396   1.401  0.00  0.00    -0.246 OA
ATOM     39  OD1 ASP A   8      21.645  16.031   0.163  0.00  0.00    -0.246 OA
ENDBRANCH  36  37
ENDBRANCH  16  36
ENDBRANCH  13  16
ENDBRANCH  11  12
BRANCH  11  40
ATOM     40  CB  ASP A   7      21.690  18.762   3.213  0.00  0.00    +0.143 C 
BRANCH  40  41
ATOM     41  CG  ASP A   7      21.982  19.109   4.673  0.00  0.00    +0.367 C 
ATOM     42  OD2 ASP A   7      22.083  18.121   5.444  0.00  0.00    -0.246 OA
ATOM     43  OD1 ASP A   7      22.116  20.290   5.143  0.00  0.00    -0.246 OA
ENDBRANCH  40  41
ENDBRANCH  11  40
ENDBRANCH   8  11
ENDBRANCH   5   7
ENDBRANCH   3   5
BRANCH   1  44
ATOM     44  CA  GLY A   5      18.335  25.292   4.894  0.00  0.00    +0.176 C 
BRANCH  44  46
ATOM     45  C   THR A   4      19.704  26.392   3.246  0.00  0.00    +0.243 C 
ATOM     46  N   GLY A   5      18.516  26.204   3.779  0.00  0.00    -0.295 N 
ATOM     47  H   GLY A   5      17.695  26.716   3.396  0.00  0.00    +0.150 HD
ATOM     48  O   THR A   4      20.722  25.850   3.685  0.00  0.00    -0.273 OA
BRANCH  45  49
ATOM     49  CA  THR A   4      19.780  27.318   2.041  0.00  0.00    +0.176 C 
BRANCH  49  51
ATOM     50  C   ASP A   3      17.957  26.437   0.704  0.00  0.00    +0.241 C 
ATOM     51  N   THR A   4      18.520  27.460   1.332  0.00  0.00    -0.295 N 
ATOM     52  H   THR A   4      18.048  28.387   1.317  0.00  0.00    +0.150 HD
ATOM     53  O   ASP A   3      18.478  25.355   0.635  0.00  0.00    -0.273 OA
BRANCH  50  54
ATOM     54  CA  ASP A   3      16.628  26.703   0.038  0.00  0.00    +0.160 C 
BRANCH  54  57
ATOM     55  C   LEU A   2      16.236  28.102  -1.877  0.00  0.00    +0.241 C 
ATOM     56  O   LEU A   2      15.798  29.015  -1.160  0.00  0.00    -0.273 OA
ATOM     57  N   ASP A   3      16.746  26.983  -1.371  0.00  0.00    -0.297 N 
ATOM     58  H   ASP A   3      17.232  26.307  -1.994  0.00  0.00    +0.150 HD
BRANCH  55  59
ATOM     59  CA  LEU A   2      16.118  28.187  -3.374  0.00  0.00    +0.149 C 
BRANCH  59  62
ATOM     60  C   LEU A   1      14.010  26.984  -3.652  0.00  0.00    +0.238 C 
ATOM     61  O   LEU A   1      14.514  25.905  -3.439  0.00  0.00    -0.274 OA
ATOM     62  N   LEU A   2      14.707  28.126  -3.758  0.00  0.00    -0.297 N 
ATOM     63  H   LEU A   2      14.237  28.981  -4.119  0.00  0.00    +0.150 HD
BRANCH  60  64
ATOM     64  CA  LEU A   1      12.505  27.050  -3.885  0.00  0.00    +0.145 C 
BRANCH  64  65
ATOM     65  N   LEU A   1      12.127  26.143  -4.967  0.00  0.00    -0.238 NA
ATOM     66  H   LEU A   1      11.989  25.139  -4.731  0.00  0.00    +0.142 HD
ENDBRANCH  64  65
BRANCH  64  67
ATOM     67  CB  LEU A   1      11.849  26.611  -2.606  0.00  0.00    +0.026 C 
BRANCH  67  68
ATOM     68  CG  LEU A   1      11.945  27.505  -1.396  0.00  0.00    +0.002 C 
ATOM     69  CD2 LEU A   1      11.133  26.856  -0.282  0.00  0.00    +0.000 C 
ATOM     70  CD1 LEU A   1      11.456  28.922  -1.712  0.00  0.00    +0.000 C 
ENDBRANCH  67  68
ENDBRANCH  64  67
ENDBRANCH  60  64
ENDBRANCH  59  62
BRANCH  59  71
ATOM     71  CB  LEU A   2      16.813  29.424  -3.969  0.00  0.00    +0.029 C 
BRANCH  71  72
ATOM     72  CG  LEU A   2      16.637  29.653  -5.466  0.00  0.00    +0.002 C 
ATOM     73  CD2 LEU A   2      17.451  30.904  -5.867  0.00  0.00    +0.000 C 
ATOM     74  CD1 LEU A   2      17.076  28.430  -6.315  0.00  0.00    +0.000 C 
ENDBRANCH  71  72
ENDBRANCH  59  71
ENDBRANCH  55  59
ENDBRANCH  54  57
BRANCH  54  75
ATOM     75  CB  ASP A   3      15.723  25.488   0.219  0.00  0.00    +0.143 C 
BRANCH  75  76
ATOM     76  CG  ASP A   3      15.375  25.233   1.685  0.00  0.00    +0.367 C 
ATOM     77  OD2 ASP A   3      15.916  25.772   2.645  0.00  0.00    -0.246 OA
ATOM     78  OD1 ASP A   3      14.443  24.504   1.887  0.00  0.00    -0.246 OA
ENDBRANCH  75  76
ENDBRANCH  54  75
ENDBRANCH  50  54
ENDBRANCH  49  51
BRANCH  49  79
ATOM     79  CB  THR A   4      20.347  28.675   2.454  0.00  0.00    +0.137 C 
ATOM     80  CG2 THR A   4      20.515  29.496   1.238  0.00  0.00    +0.034 C 
BRANCH  79  81
ATOM     81  OG1 THR A   4      19.446  29.352   3.340  0.00  0.00    -0.382 OA
ATOM     82  HG1 THR A   4      19.307  28.802   4.151  0.00  0.00    +0.210 HD
ENDBRANCH  79  81
ENDBRANCH  49  79
ENDBRANCH  45  49
ENDBRANCH  44  46
ENDBRANCH   1  44
TORSDOF 35
REMARK  Name = ../refined-set-2016/1izh/1izh_pocket.pdb
REMARK  225 active torsions:
REMARK  status: ('A' for Active; 'I' for Inactive)
REMARK    1  A    between atoms: _1  and  _3
REMARK    2  A    between atoms: _3  and  _4
REMARK    3  A    between atoms: _3  and  _6
REMARK    4  A    between atoms: _6  and  _7
REMARK    5  A    between atoms: _7  and  _8
REMARK    6  A    between atoms: _8  and  _9
REMARK    7  A    between atoms: _18  and  _20
REMARK    8  A    between atoms: _20  and  _21
REMARK    9  A    between atoms: _20  and  _23
REMARK   10  A    between atoms: _23  and  _24
REMARK   11  A    between atoms: _27  and  _29
REMARK   12  A    between atoms: _29  and  _30
REMARK   13  A    between atoms: _29  and  _32
REMARK   14  A    between atoms: _32  and  _33
REMARK   15  A    between atoms: _36  and  _38
REMARK   16  A    between atoms: _38  and  _39
REMARK   17  A    between atoms: _38  and  _41
REMARK   18  A    between atoms: _41  and  _42
REMARK   19  A    between atoms: _45  and  _47
REMARK   20  A    between atoms: _47  and  _48
REMARK   21  A    between atoms: _47  and  _50
REMARK   22  A    between atoms: _50  and  _51
REMARK   23  A    between atoms: _54  and  _56
REMARK   24  A    between atoms: _56  and  _57
REMARK   25  A    between atoms: _59  and  _61
REMARK   26  A    between atoms: _61  and  _62
REMARK   27  A    between atoms: _65  and  _67
REMARK   28  A    between atoms: _67  and  _68
REMARK   29  A    between atoms: _67  and  _70
REMARK   30  A    between atoms: _70  and  _71
REMARK   31  A    between atoms: _74  and  _76
REMARK   32  A    between atoms: _76  and  _77
REMARK   33  A    between atoms: _76  and  _79
REMARK   34  A    between atoms: _79  and  _80
REMARK   35  A    between atoms: _83  and  _85
REMARK   36  A    between atoms: _85  and  _86
REMARK   37  A    between atoms: _85  and  _88
REMARK   38  A    between atoms: _88  and  _89
REMARK   39  A    between atoms: _92  and  _94
REMARK   40  A    between atoms: _94  and  _95
REMARK   41  A    between atoms: _94  and  _97
REMARK   42  A    between atoms: _100  and  _102
REMARK   43  A    between atoms: _102  and  _103
REMARK   44  A    between atoms: _102  and  _105
REMARK   45  A    between atoms: _105  and  _106
REMARK   46  A    between atoms: _106  and  _107
REMARK   47  A    between atoms: _109  and  _111
REMARK   48  A    between atoms: _111  and  _112
REMARK   49  A    between atoms: _111  and  _114
REMARK   50  A    between atoms: _114  and  _115
REMARK   51  A    between atoms: _118  and  _120
REMARK   52  A    between atoms: _120  and  _121
REMARK   53  A    between atoms: _123  and  _125
REMARK   54  A    between atoms: _125  and  _126
REMARK   55  A    between atoms: _128  and  _130
REMARK   56  A    between atoms: _130  and  _131
REMARK   57  A    between atoms: _130  and  _133
REMARK   58  A    between atoms: _133  and  _134
REMARK   59  A    between atoms: _137  and  _139
REMARK   60  A    between atoms: _139  and  _140
REMARK   61  A    between atoms: _142  and  _144
REMARK   62  A    between atoms: _144  and  _145
REMARK   63  A    between atoms: _147  and  _149
REMARK   64  A    between atoms: _149  and  _150
REMARK   65  A    between atoms: _149  and  _152
REMARK   66  A    between atoms: _152  and  _153
REMARK   67  A    between atoms: _159  and  _161
REMARK   68  A    between atoms: _161  and  _162
REMARK   69  A    between atoms: _161  and  _164
REMARK   70  A    between atoms: _164  and  _165
REMARK   71  A    between atoms: _168  and  _170
REMARK   72  A    between atoms: _170  and  _171
REMARK   73  A    between atoms: _170  and  _173
REMARK   74  A    between atoms: _176  and  _178
REMARK   75  A    between atoms: _178  and  _179
REMARK   76  A    between atoms: _178  and  _181
REMARK   77  A    between atoms: _181  and  _182
REMARK   78  A    between atoms: _186  and  _187
REMARK   79  A    between atoms: _192  and  _194
REMARK   80  A    between atoms: _194  and  _195
REMARK   81  A    between atoms: _194  and  _197
REMARK   82  A    between atoms: _197  and  _198
REMARK   83  A    between atoms: _202  and  _203
REMARK   84  A    between atoms: _208  and  _210
REMARK   85  A    between atoms: _210  and  _211
REMARK   86  A    between atoms: _210  and  _213
REMARK   87  A    between atoms: _216  and  _218
REMARK   88  A    between atoms: _218  and  _219
REMARK   89  A    between atoms: _218  and  _221
REMARK   90  A    between atoms: _221  and  _222
REMARK   91  A    between atoms: _227  and  _229
REMARK   92  A    between atoms: _229  and  _230
REMARK   93  A    between atoms: _229  and  _232
REMARK   94  A    between atoms: _232  and  _233
REMARK   95  A    between atoms: _236  and  _238
REMARK   96  A    between atoms: _238  and  _239
REMARK   97  A    between atoms: _238  and  _241
REMARK   98  A    between atoms: _241  and  _242
REMARK   99  A    between atoms: _245  and  _247
REMARK  100  A    between atoms: _247  and  _248
REMARK  101  A    between atoms: _250  and  _252
REMARK  102  A    between atoms: _252  and  _253
REMARK  103  A    between atoms: _252  and  _255
REMARK  104  A    between atoms: _255  and  _256
REMARK  105  A    between atoms: _256  and  _257
REMARK  106  A    between atoms: _257  and  _258
REMARK  107  A    between atoms: _267  and  _269
REMARK  108  A    between atoms: _269  and  _270
REMARK  109  A    between atoms: _269  and  _272
REMARK  110  A    between atoms: _272  and  _273
REMARK  111  A    between atoms: _278  and  _280
REMARK  112  A    between atoms: _280  and  _281
REMARK  113  A    between atoms: _280  and  _283
REMARK  114  A    between atoms: _283  and  _284
REMARK  115  A    between atoms: _284  and  _285
REMARK  116  A    between atoms: _285  and  _286
REMARK  117  A    between atoms: _295  and  _297
REMARK  118  A    between atoms: _297  and  _298
REMARK  119  A    between atoms: _297  and  _300
REMARK  120  A    between atoms: _300  and  _301
REMARK  121  A    between atoms: _304  and  _306
REMARK  122  A    between atoms: _306  and  _307
REMARK  123  A    between atoms: _306  and  _309
REMARK  124  A    between atoms: _309  and  _310
REMARK  125  A    between atoms: _313  and  _315
REMARK  126  A    between atoms: _315  and  _316
REMARK  127  A    between atoms: _315  and  _318
REMARK  128  A    between atoms: _318  and  _319
REMARK  129  A    between atoms: _322  and  _324
REMARK  130  A    between atoms: _324  and  _325
REMARK  131  A    between atoms: _324  and  _327
REMARK  132  A    between atoms: _327  and  _328
REMARK  133  A    between atoms: _331  and  _333
REMARK  134  A    between atoms: _333  and  _334
REMARK  135  A    between atoms: _336  and  _338
REMARK  136  A    between atoms: _338  and  _339
REMARK  137  A    between atoms: _342  and  _344
REMARK  138  A    between atoms: _344  and  _345
REMARK  139  A    between atoms: _344  and  _347
REMARK  140  A    between atoms: _347  and  _348
REMARK  141  A    between atoms: _351  and  _353
REMARK  142  A    between atoms: _353  and  _354
REMARK  143  A    between atoms: _353  and  _356
REMARK  144  A    between atoms: _356  and  _357
REMARK  145  A    between atoms: _360  and  _362
REMARK  146  A    between atoms: _362  and  _363
REMARK  147  A    between atoms: _362  and  _365
REMARK  148  A    between atoms: _365  and  _366
REMARK  149  A    between atoms: _369  and  _371
REMARK  150  A    between atoms: _371  and  _372
REMARK  151  A    between atoms: _371  and  _374
REMARK  152  A    between atoms: _377  and  _379
REMARK  153  A    between atoms: _379  and  _380
REMARK  154  A    between atoms: _379  and  _382
REMARK  155  A    between atoms: _383  and  _384
REMARK  156  A    between atoms: _384  and  _385
REMARK  157  A    between atoms: _385  and  _386
REMARK  158  A    between atoms: _390  and  _392
REMARK  159  A    between atoms: _392  and  _393
REMARK  160  A    between atoms: _392  and  _395
REMARK  161  A    between atoms: _395  and  _396
REMARK  162  A    between atoms: _396  and  _397
REMARK  163  A    between atoms: _399  and  _401
REMARK  164  A    between atoms: _401  and  _402
REMARK  165  A    between atoms: _401  and  _404
REMARK  166  A    between atoms: _404  and  _405
REMARK  167  A    between atoms: _408  and  _410
REMARK  168  A    between atoms: _410  and  _411
REMARK  169  A    between atoms: _413  and  _415
REMARK  170  A    between atoms: _415  and  _416
REMARK  171  A    between atoms: _418  and  _420
REMARK  172  A    between atoms: _420  and  _421
REMARK  173  A    between atoms: _420  and  _423
REMARK  174  A    between atoms: _423  and  _424
REMARK  175  A    between atoms: _427  and  _429
REMARK  176  A    between atoms: _429  and  _430
REMARK  177  A    between atoms: _432  and  _434
REMARK  178  A    between atoms: _434  and  _435
REMARK  179  A    between atoms: _437  and  _439
REMARK  180  A    between atoms: _439  and  _440
REMARK  181  A    between atoms: _439  and  _442
REMARK  182  A    between atoms: _442  and  _443
REMARK  183  A    between atoms: _449  and  _451
REMARK  184  A    between atoms: _451  and  _452
REMARK  185  A    between atoms: _451  and  _454
REMARK  186  A    between atoms: _454  and  _455
REMARK  187  A    between atoms: _458  and  _460
REMARK  188  A    between atoms: _460  and  _461
REMARK  189  A    between atoms: _460  and  _463
REMARK  190  A    between atoms: _466  and  _468
REMARK  191  A    between atoms: _468  and  _469
REMARK  192  A    between atoms: _468  and  _471
REMARK  193  A    between atoms: _471  and  _472
REMARK  194  A    between atoms: _475  and  _477
REMARK  195  A    between atoms: _477  and  _478
REMARK  196  A    between atoms: _477  and  _480
REMARK  197  A    between atoms: _480  and  _481
REMARK  198  A    between atoms: _485  and  _486
REMARK  199  A    between atoms: _491  and  _493
REMARK  200  A    between atoms: _493  and  _494
REMARK  201  A    between atoms: _493  and  _496
REMARK  202  A    between atoms: _499  and  _501
REMARK  203  A    between atoms: _501  and  _502
REMARK  204  A    between atoms: _501  and  _504
REMARK  205  A    between atoms: _504  and  _505
REMARK  206  A    between atoms: _510  and  _512
REMARK  207  A    between atoms: _512  and  _513
REMARK  208  A    between atoms: _512  and  _515
REMARK  209  A    between atoms: _515  and  _516
REMARK  210  A    between atoms: _519  and  _521
REMARK  211  A    between atoms: _521  and  _522
REMARK  212  A    between atoms: _521  and  _524
REMARK  213  A    between atoms: _524  and  _525
REMARK  214  A    between atoms: _528  and  _530
REMARK  215  A    between atoms: _530  and  _531
REMARK  216  A    between atoms: _533  and  _535
REMARK  217  A    between atoms: _535  and  _536
REMARK  218  A    between atoms: _535  and  _538
REMARK  219  A    between atoms: _538  and  _539
REMARK  220  A    between atoms: _539  and  _540
REMARK  221  A    between atoms: _540  and  _541
REMARK  222  A    between atoms: _550  and  _552
REMARK  223  A    between atoms: _552  and  _553
REMARK  224  A    between atoms: _552  and  _555
REMARK  225  A    between atoms: _555  and  _556
REMARK                            x       y       z     vdW  Elec       q    Type
REMARK                         _______ _______ _______ _____ _____    ______ ____
ROOT
ATOM      1  C   GLY A   5      12.105  18.441   9.256  0.00  0.00    +0.243 C 
ATOM      2  O   GLY A   5      12.309  17.769  10.296  0.00  0.00    -0.273 OA
ATOM      3  N   ILE A   6      11.284  19.478   9.190  0.00  0.00    -0.297 N 
ATOM      4  H   ILE A   6      11.169  19.951   8.271  0.00  0.00    +0.150 HD
ENDROOT
BRANCH   3   5
ATOM      5  CA  ILE A   6      10.521  20.006  10.341  0.00  0.00    +0.149 C 
BRANCH   5   6
ATOM      6  C   ILE A   6       9.678  18.929  11.010  0.00  0.00    +0.241 C 
ATOM      7  O   ILE A   6       9.700  18.794  12.234  0.00  0.00    -0.273 OA
ATOM      8  N   GLY A   7       8.941  18.153  10.247  0.00  0.00    -0.295 N 
ATOM      9  H   GLY A   7       9.015  18.173   9.210  0.00  0.00    +0.150 HD
BRANCH   8  10
ATOM     10  CA  GLY A   7       8.006  17.255  10.940  0.00  0.00    +0.176 C 
BRANCH  10  11
ATOM     11  C   GLY A   7       8.388  15.792  11.038  0.00  0.00    +0.243 C 
ATOM     12  O   GLY A   7       7.547  14.940  11.464  0.00  0.00    -0.273 OA
ATOM     13  N   GLY A   8       9.603  15.476  10.601  0.00  0.00    -0.295 N 
ATOM     14  H   GLY A   8      10.233  16.230  10.262  0.00  0.00    +0.150 HD
BRANCH  13  15
ATOM     15  CA  GLY A   8      10.073  14.090  10.587  0.00  0.00    +0.176 C 
BRANCH  15  16
ATOM     16  C   GLY A   8      10.779  13.699   9.300  0.00  0.00    +0.243 C 
ATOM     17  N   PHE A   9      10.822  12.405   9.036  0.00  0.00    -0.297 N 
ATOM     18  H   PHE A   9      10.250  11.758   9.615  0.00  0.00    +0.150 HD
ATOM     19  O   GLY A   8      11.264  14.545   8.561  0.00  0.00    -0.273 OA
BRANCH  17  20
ATOM     20  CA  PHE A   9      11.635  11.853   7.972  0.00  0.00    +0.153 C 
BRANCH  20  21
ATOM     21  C   PHE A   9      10.705  11.308   6.906  0.00  0.00    +0.241 C 
ATOM     22  O   PHE A   9       9.591  10.855   7.210  0.00  0.00    -0.273 OA
ATOM     23  N   ILE A  10      11.138  11.389   5.654  0.00  0.00    -0.298 N 
ATOM     24  H   ILE A  10      12.019  11.904   5.453  0.00  0.00    +0.150 HD
BRANCH  23  25
ATOM     25  CA  ILE A  10      10.411  10.777   4.562  0.00  0.00    +0.137 C 
BRANCH  25  26
ATOM     26  CB  ILE A  10       9.673  11.792   3.673  0.00  0.00    +0.026 C 
ATOM     27  CG2 ILE A  10       8.506  12.543   4.458  0.00  0.00    +0.002 C 
BRANCH  26  28
ATOM     28  CG1 ILE A  10      10.705  12.701   2.981  0.00  0.00    +0.002 C 
ATOM     29  CD1 ILE A  10      10.169  13.480   1.834  0.00  0.00    +0.000 C 
ENDBRANCH  26  28
ENDBRANCH  25  26
BRANCH  25  30
ATOM     30  C   ILE A  10      11.403  10.005   3.706  0.00  0.00    +0.227 C 
ATOM     31  O   ILE A  10      12.629  10.279   3.737  0.00  0.00    -0.286 OA
ENDBRANCH  25  30
ENDBRANCH  23  25
ENDBRANCH  20  21
BRANCH  20  32
ATOM     32  CB  PHE A   9      12.583  10.753   8.494  0.00  0.00    +0.055 C 
BRANCH  32  33
ATOM     33  CG  PHE A   9      13.657  11.274   9.383  0.00  0.00    -0.020 A 
ATOM     34  CD2 PHE A   9      13.376  11.578  10.697  0.00  0.00    -0.004 A 
ATOM     35  CE2 PHE A   9      14.354  12.138  11.543  0.00  0.00    -0.000 A 
ATOM     36  CZ  PHE A   9      15.614  12.320  11.078  0.00  0.00    -0.000 A 
ATOM     37  CE1 PHE A   9      15.915  12.004   9.757  0.00  0.00    -0.000 A 
ATOM     38  CD1 PHE A   9      14.922  11.503   8.908  0.00  0.00    -0.004 A 
ENDBRANCH  32  33
ENDBRANCH  20  32
ENDBRANCH  17  20
ENDBRANCH  15  16
ENDBRANCH  13  15
ENDBRANCH  10  11
ENDBRANCH   8  10
ENDBRANCH   5   6
BRANCH   5  39
ATOM     39  CB  ILE A   6       9.598  21.165   9.858  0.00  0.00    +0.027 C 
ATOM     40  CG2 ILE A   6       8.427  21.390  10.791  0.00  0.00    +0.002 C 
BRANCH  39  41
ATOM     41  CG1 ILE A   6      10.377  22.472   9.788  0.00  0.00    +0.002 C 
ATOM     42  CD1 ILE A   6      10.949  22.872  11.175  0.00  0.00    +0.000 C 
ENDBRANCH  39  41
ENDBRANCH   5  39
ENDBRANCH   3   5
BRANCH   1  43
ATOM     43  CA  GLY A   5      12.779  18.116   7.926  0.00  0.00    +0.176 C 
BRANCH  43  45
ATOM     44  C   GLY A   4      14.316  16.269   7.555  0.00  0.00    +0.243 C 
ATOM     45  N   GLY A   5      13.111  16.706   7.852  0.00  0.00    -0.295 N 
ATOM     46  H   GLY A   5      12.363  16.009   8.042  0.00  0.00    +0.150 HD
ATOM     47  O   GLY A   4      15.216  17.001   7.209  0.00  0.00    -0.273 OA
BRANCH  44  48
ATOM     48  CA  GLY A   4      14.542  14.765   7.652  0.00  0.00    +0.176 C 
BRANCH  48  50
ATOM     49  C   ILE A   3      14.833  13.296   5.709  0.00  0.00    +0.241 C 
ATOM     50  N   GLY A   4      15.304  14.219   6.546  0.00  0.00    -0.295 N 
ATOM     51  H   GLY A   4      16.273  14.568   6.398  0.00  0.00    +0.150 HD
ATOM     52  O   ILE A   3      13.654  12.856   5.738  0.00  0.00    -0.273 OA
BRANCH  49  53
ATOM     53  CA  ILE A   3      15.811  12.755   4.689  0.00  0.00    +0.149 C 
BRANCH  53  56
ATOM     54  C   MET A   2      16.333  10.402   4.490  0.00  0.00    +0.241 C 
ATOM     55  O   MET A   2      17.528  10.584   4.723  0.00  0.00    -0.273 OA
ATOM     56  N   ILE A   3      15.439  11.382   4.445  0.00  0.00    -0.297 N 
ATOM     57  H   ILE A   3      14.447  11.155   4.229  0.00  0.00    +0.150 HD
BRANCH  54  58
ATOM     58  CA  MET A   2      15.817   9.024   4.229  0.00  0.00    +0.149 C 
BRANCH  58  60
ATOM     59  C   LYS A   1      16.434   8.208   1.998  0.00  0.00    +0.243 C 
ATOM     60  N   MET A   2      16.749   8.410   3.268  0.00  0.00    -0.297 N 
ATOM     61  H   MET A   2      17.692   8.124   3.600  0.00  0.00    +0.150 HD
ATOM     62  O   LYS A   1      15.309   8.344   1.572  0.00  0.00    -0.273 OA
BRANCH  59  63
ATOM     63  CA  LYS A   1      17.580   7.793   1.087  0.00  0.00    +0.167 C 
BRANCH  63  64
ATOM     64  CB  LYS A   1      18.269   9.018   0.459  0.00  0.00    -0.005 C 
ATOM     65  CG  LYS A   1      19.116   9.816   1.386  0.00  0.00    -0.031 C 
BRANCH  65  66
ATOM     66  CD  LYS A   1      19.858  10.980   0.753  0.00  0.00    +0.002 C 
BRANCH  66  67
ATOM     67  CE  LYS A   1      20.808  11.547   1.782  0.00  0.00    -0.081 C 
BRANCH  67  68
ATOM     68  NZ  LYS A   1      21.462  12.774   1.350  0.00  0.00    +0.381 N 
ATOM     69  HZ1 LYS A   1      22.099  13.109   2.101  0.00  0.00    -0.089 HD
ATOM     70  HZ2 LYS A   1      20.742  13.499   1.155  0.00  0.00    -0.089 HD
ATOM     71  HZ3 LYS A   1      22.011  12.587   0.486  0.00  0.00    -0.089 HD
ENDBRANCH  67  68
ENDBRANCH  66  67
ENDBRANCH  65  66
ENDBRANCH  63  64
BRANCH  63  72
ATOM     72  N   LYS A   1      17.077   6.897   0.086  0.00  0.00    -0.234 NA
ATOM     73  H   LYS A   1      16.098   6.988  -0.252  0.00  0.00    +0.142 HD
ENDBRANCH  63  72
ENDBRANCH  59  63
ENDBRANCH  58  60
BRANCH  58  74
ATOM     74  CB  MET A   2      15.873   8.278   5.571  0.00  0.00    +0.041 C 
BRANCH  74  75
ATOM     75  CG  MET A   2      15.472   6.856   5.448  0.00  0.00    +0.060 C 
BRANCH  75  76
ATOM     76  SD  MET A   2      13.714   6.717   4.939  0.00  0.00    -0.139 S 
ATOM     77  CE  MET A   2      12.943   7.830   6.257  0.00  0.00    +0.069 C 
ENDBRANCH  75  76
ENDBRANCH  74  75
ENDBRANCH  58  74
ENDBRANCH  54  58
ENDBRANCH  53  56
BRANCH  53  78
ATOM     78  CB  ILE A   3      15.748  13.576   3.371  0.00  0.00    +0.027 C 
ATOM     79  CG2 ILE A   3      16.738  13.078   2.358  0.00  0.00    +0.002 C 
BRANCH  78  80
ATOM     80  CG1 ILE A   3      14.355  13.596   2.773  0.00  0.00    +0.002 C 
ATOM     81  CD1 ILE A   3      14.120  14.608   1.673  0.00  0.00    +0.000 C 
ENDBRANCH  78  80
ENDBRANCH  53  78
ENDBRANCH  49  53
ENDBRANCH  48  50
ENDBRANCH  44  48
ENDBRANCH  43  45
ENDBRANCH   1  43
TORSDOF 35
REMARK  Name = ../refined-set-2016/1izh/1izh_pocket.pdb
REMARK  225 active torsions:
REMARK  status: ('A' for Active; 'I' for Inactive)
REMARK    1  A    between atoms: _1  and  _3
REMARK    2  A    between atoms: _3  and  _4
REMARK    3  A    between atoms: _3  and  _6
REMARK    4  A    between atoms: _6  and  _7
REMARK    5  A    between atoms: _7  and  _8
REMARK    6  A    between atoms: _8  and  _9
REMARK    7  A    between atoms: _18  and  _20
REMARK    8  A    between atoms: _20  and  _21
REMARK    9  A    between atoms: _20  and  _23
REMARK   10  A    between atoms: _23  and  _24
REMARK   11  A    between atoms: _27  and  _29
REMARK   12  A    between atoms: _29  and  _30
REMARK   13  A    between atoms: _29  and  _32
REMARK   14  A    between atoms: _32  and  _33
REMARK   15  A    between atoms: _36  and  _38
REMARK   16  A    between atoms: _38  and  _39
REMARK   17  A    between atoms: _38  and  _41
REMARK   18  A    between atoms: _41  and  _42
REMARK   19  A    between atoms: _45  and  _47
REMARK   20  A    between atoms: _47  and  _48
REMARK   21  A    between atoms: _47  and  _50
REMARK   22  A    between atoms: _50  and  _51
REMARK   23  A    between atoms: _54  and  _56
REMARK   24  A    between atoms: _56  and  _57
REMARK   25  A    between atoms: _59  and  _61
REMARK   26  A    between atoms: _61  and  _62
REMARK   27  A    between atoms: _65  and  _67
REMARK   28  A    between atoms: _67  and  _68
REMARK   29  A    between atoms: _67  and  _70
REMARK   30  A    between atoms: _70  and  _71
REMARK   31  A    between atoms: _74  and  _76
REMARK   32  A    between atoms: _76  and  _77
REMARK   33  A    between atoms: _76  and  _79
REMARK   34  A    between atoms: _79  and  _80
REMARK   35  A    between atoms: _83  and  _85
REMARK   36  A    between atoms: _85  and  _86
REMARK   37  A    between atoms: _85  and  _88
REMARK   38  A    between atoms: _88  and  _89
REMARK   39  A    between atoms: _92  and  _94
REMARK   40  A    between atoms: _94  and  _95
REMARK   41  A    between atoms: _94  and  _97
REMARK   42  A    between atoms: _100  and  _102
REMARK   43  A    between atoms: _102  and  _103
REMARK   44  A    between atoms: _102  and  _105
REMARK   45  A    between atoms: _105  and  _106
REMARK   46  A    between atoms: _106  and  _107
REMARK   47  A    between atoms: _109  and  _111
REMARK   48  A    between atoms: _111  and  _112
REMARK   49  A    between atoms: _111  and  _114
REMARK   50  A    between atoms: _114  and  _115
REMARK   51  A    between atoms: _118  and  _120
REMARK   52  A    between atoms: _120  and  _121
REMARK   53  A    between atoms: _123  and  _125
REMARK   54  A    between atoms: _125  and  _126
REMARK   55  A    between atoms: _128  and  _130
REMARK   56  A    between atoms: _130  and  _131
REMARK   57  A    between atoms: _130  and  _133
REMARK   58  A    between atoms: _133  and  _134
REMARK   59  A    between atoms: _137  and  _139
REMARK   60  A    between atoms: _139  and  _140
REMARK   61  A    between atoms: _142  and  _144
REMARK   62  A    between atoms: _144  and  _145
REMARK   63  A    between atoms: _147  and  _149
REMARK   64  A    between atoms: _149  and  _150
REMARK   65  A    between atoms: _149  and  _152
REMARK   66  A    between atoms: _152  and  _153
REMARK   67  A    between atoms: _159  and  _161
REMARK   68  A    between atoms: _161  and  _162
REMARK   69  A    between atoms: _161  and  _164
REMARK   70  A    between atoms: _164  and  _165
REMARK   71  A    between atoms: _168  and  _170
REMARK   72  A    between atoms: _170  and  _171
REMARK   73  A    between atoms: _170  and  _173
REMARK   74  A    between atoms: _176  and  _178
REMARK   75  A    between atoms: _178  and  _179
REMARK   76  A    between atoms: _178  and  _181
REMARK   77  A    between atoms: _181  and  _182
REMARK   78  A    between atoms: _186  and  _187
REMARK   79  A    between atoms: _192  and  _194
REMARK   80  A    between atoms: _194  and  _195
REMARK   81  A    between atoms: _194  and  _197
REMARK   82  A    between atoms: _197  and  _198
REMARK   83  A    between atoms: _202  and  _203
REMARK   84  A    between atoms: _208  and  _210
REMARK   85  A    between atoms: _210  and  _211
REMARK   86  A    between atoms: _210  and  _213
REMARK   87  A    between atoms: _216  and  _218
REMARK   88  A    between atoms: _218  and  _219
REMARK   89  A    between atoms: _218  and  _221
REMARK   90  A    between atoms: _221  and  _222
REMARK   91  A    between atoms: _227  and  _229
REMARK   92  A    between atoms: _229  and  _230
REMARK   93  A    between atoms: _229  and  _232
REMARK   94  A    between atoms: _232  and  _233
REMARK   95  A    between atoms: _236  and  _238
REMARK   96  A    between atoms: _238  and  _239
REMARK   97  A    between atoms: _238  and  _241
REMARK   98  A    between atoms: _241  and  _242
REMARK   99  A    between atoms: _245  and  _247
REMARK  100  A    between atoms: _247  and  _248
REMARK  101  A    between atoms: _250  and  _252
REMARK  102  A    between atoms: _252  and  _253
REMARK  103  A    between atoms: _252  and  _255
REMARK  104  A    between atoms: _255  and  _256
REMARK  105  A    between atoms: _256  and  _257
REMARK  106  A    between atoms: _257  and  _258
REMARK  107  A    between atoms: _267  and  _269
REMARK  108  A    between atoms: _269  and  _270
REMARK  109  A    between atoms: _269  and  _272
REMARK  110  A    between atoms: _272  and  _273
REMARK  111  A    between atoms: _278  and  _280
REMARK  112  A    between atoms: _280  and  _281
REMARK  113  A    between atoms: _280  and  _283
REMARK  114  A    between atoms: _283  and  _284
REMARK  115  A    between atoms: _284  and  _285
REMARK  116  A    between atoms: _285  and  _286
REMARK  117  A    between atoms: _295  and  _297
REMARK  118  A    between atoms: _297  and  _298
REMARK  119  A    between atoms: _297  and  _300
REMARK  120  A    between atoms: _300  and  _301
REMARK  121  A    between atoms: _304  and  _306
REMARK  122  A    between atoms: _306  and  _307
REMARK  123  A    between atoms: _306  and  _309
REMARK  124  A    between atoms: _309  and  _310
REMARK  125  A    between atoms: _313  and  _315
REMARK  126  A    between atoms: _315  and  _316
REMARK  127  A    between atoms: _315  and  _318
REMARK  128  A    between atoms: _318  and  _319
REMARK  129  A    between atoms: _322  and  _324
REMARK  130  A    between atoms: _324  and  _325
REMARK  131  A    between atoms: _324  and  _327
REMARK  132  A    between atoms: _327  and  _328
REMARK  133  A    between atoms: _331  and  _333
REMARK  134  A    between atoms: _333  and  _334
REMARK  135  A    between atoms: _336  and  _338
REMARK  136  A    between atoms: _338  and  _339
REMARK  137  A    between atoms: _342  and  _344
REMARK  138  A    between atoms: _344  and  _345
REMARK  139  A    between atoms: _344  and  _347
REMARK  140  A    between atoms: _347  and  _348
REMARK  141  A    between atoms: _351  and  _353
REMARK  142  A    between atoms: _353  and  _354
REMARK  143  A    between atoms: _353  and  _356
REMARK  144  A    between atoms: _356  and  _357
REMARK  145  A    between atoms: _360  and  _362
REMARK  146  A    between atoms: _362  and  _363
REMARK  147  A    between atoms: _362  and  _365
REMARK  148  A    between atoms: _365  and  _366
REMARK  149  A    between atoms: _369  and  _371
REMARK  150  A    between atoms: _371  and  _372
REMARK  151  A    between atoms: _371  and  _374
REMARK  152  A    between atoms: _377  and  _379
REMARK  153  A    between atoms: _379  and  _380
REMARK  154  A    between atoms: _379  and  _382
REMARK  155  A    between atoms: _383  and  _384
REMARK  156  A    between atoms: _384  and  _385
REMARK  157  A    between atoms: _385  and  _386
REMARK  158  A    between atoms: _390  and  _392
REMARK  159  A    between atoms: _392  and  _393
REMARK  160  A    between atoms: _392  and  _395
REMARK  161  A    between atoms: _395  and  _396
REMARK  162  A    between atoms: _396  and  _397
REMARK  163  A    between atoms: _399  and  _401
REMARK  164  A    between atoms: _401  and  _402
REMARK  165  A    between atoms: _401  and  _404
REMARK  166  A    between atoms: _404  and  _405
REMARK  167  A    between atoms: _408  and  _410
REMARK  168  A    between atoms: _410  and  _411
REMARK  169  A    between atoms: _413  and  _415
REMARK  170  A    between atoms: _415  and  _416
REMARK  171  A    between atoms: _418  and  _420
REMARK  172  A    between atoms: _420  and  _421
REMARK  173  A    between atoms: _420  and  _423
REMARK  174  A    between atoms: _423  and  _424
REMARK  175  A    between atoms: _427  and  _429
REMARK  176  A    between atoms: _429  and  _430
REMARK  177  A    between atoms: _432  and  _434
REMARK  178  A    between atoms: _434  and  _435
REMARK  179  A    between atoms: _437  and  _439
REMARK  180  A    between atoms: _439  and  _440
REMARK  181  A    between atoms: _439  and  _442
REMARK  182  A    between atoms: _442  and  _443
REMARK  183  A    between atoms: _449  and  _451
REMARK  184  A    between atoms: _451  and  _452
REMARK  185  A    between atoms: _451  and  _454
REMARK  186  A    between atoms: _454  and  _455
REMARK  187  A    between atoms: _458  and  _460
REMARK  188  A    between atoms: _460  and  _461
REMARK  189  A    between atoms: _460  and  _463
REMARK  190  A    between atoms: _466  and  _468
REMARK  191  A    between atoms: _468  and  _469
REMARK  192  A    between atoms: _468  and  _471
REMARK  193  A    between atoms: _471  and  _472
REMARK  194  A    between atoms: _475  and  _477
REMARK  195  A    between atoms: _477  and  _478
REMARK  196  A    between atoms: _477  and  _480
REMARK  197  A    between atoms: _480  and  _481
REMARK  198  A    between atoms: _485  and  _486
REMARK  199  A    between atoms: _491  and  _493
REMARK  200  A    between atoms: _493  and  _494
REMARK  201  A    between atoms: _493  and  _496
REMARK  202  A    between atoms: _499  and  _501
REMARK  203  A    between atoms: _501  and  _502
REMARK  204  A    between atoms: _501  and  _504
REMARK  205  A    between atoms: _504  and  _505
REMARK  206  A    between atoms: _510  and  _512
REMARK  207  A    between atoms: _512  and  _513
REMARK  208  A    between atoms: _512  and  _515
REMARK  209  A    between atoms: _515  and  _516
REMARK  210  A    between atoms: _519  and  _521
REMARK  211  A    between atoms: _521  and  _522
REMARK  212  A    between atoms: _521  and  _524
REMARK  213  A    between atoms: _524  and  _525
REMARK  214  A    between atoms: _528  and  _530
REMARK  215  A    between atoms: _530  and  _531
REMARK  216  A    between atoms: _533  and  _535
REMARK  217  A    between atoms: _535  and  _536
REMARK  218  A    between atoms: _535  and  _538
REMARK  219  A    between atoms: _538  and  _539
REMARK  220  A    between atoms: _539  and  _540
REMARK  221  A    between atoms: _540  and  _541
REMARK  222  A    between atoms: _550  and  _552
REMARK  223  A    between atoms: _552  and  _553
REMARK  224  A    between atoms: _552  and  _555
REMARK  225  A    between atoms: _555  and  _556
REMARK                            x       y       z     vdW  Elec       q    Type
REMARK                         _______ _______ _______ _____ _____    ______ ____
ROOT
ATOM      1  CA  VAL A   1      12.925   9.482  -1.240  0.00  0.00    +0.133 C 
ENDROOT
BRANCH   1   2
ATOM      2  CB  VAL A   1      13.481  10.976  -1.180  0.00  0.00    +0.023 C 
ATOM      3  CG2 VAL A   1      12.567  11.868  -0.323  0.00  0.00    +0.002 C 
ATOM      4  CG1 VAL A   1      14.896  11.021  -0.675  0.00  0.00    +0.002 C 
ENDBRANCH   1   2
BRANCH   1   5
ATOM      5  N   VAL A   1      12.827   8.861   0.083  0.00  0.00    -0.239 NA
ATOM      6  H   VAL A   1      13.672   8.453   0.532  0.00  0.00    +0.142 HD
ENDBRANCH   1   5
BRANCH   1   7
ATOM      7  C   VAL A   1      13.834   8.611  -2.118  0.00  0.00    +0.224 C 
ATOM      8  O   VAL A   1      14.580   7.770  -1.604  0.00  0.00    -0.287 OA
ENDBRANCH   1   7
TORSDOF 3
REMARK  Name = ../refined-set-2016/1izh/1izh_pocket.pdb
REMARK  225 active torsions:
REMARK  status: ('A' for Active; 'I' for Inactive)
REMARK    1  A    between atoms: _1  and  _3
REMARK    2  A    between atoms: _3  and  _4
REMARK    3  A    between atoms: _3  and  _6
REMARK    4  A    between atoms: _6  and  _7
REMARK    5  A    between atoms: _7  and  _8
REMARK    6  A    between atoms: _8  and  _9
REMARK    7  A    between atoms: _18  and  _20
REMARK    8  A    between atoms: _20  and  _21
REMARK    9  A    between atoms: _20  and  _23
REMARK   10  A    between atoms: _23  and  _24
REMARK   11  A    between atoms: _27  and  _29
REMARK   12  A    between atoms: _29  and  _30
REMARK   13  A    between atoms: _29  and  _32
REMARK   14  A    between atoms: _32  and  _33
REMARK   15  A    between atoms: _36  and  _38
REMARK   16  A    between atoms: _38  and  _39
REMARK   17  A    between atoms: _38  and  _41
REMARK   18  A    between atoms: _41  and  _42
REMARK   19  A    between atoms: _45  and  _47
REMARK   20  A    between atoms: _47  and  _48
REMARK   21  A    between atoms: _47  and  _50
REMARK   22  A    between atoms: _50  and  _51
REMARK   23  A    between atoms: _54  and  _56
REMARK   24  A    between atoms: _56  and  _57
REMARK   25  A    between atoms: _59  and  _61
REMARK   26  A    between atoms: _61  and  _62
REMARK   27  A    between atoms: _65  and  _67
REMARK   28  A    between atoms: _67  and  _68
REMARK   29  A    between atoms: _67  and  _70
REMARK   30  A    between atoms: _70  and  _71
REMARK   31  A    between atoms: _74  and  _76
REMARK   32  A    between atoms: _76  and  _77
REMARK   33  A    between atoms: _76  and  _79
REMARK   34  A    between atoms: _79  and  _80
REMARK   35  A    between atoms: _83  and  _85
REMARK   36  A    between atoms: _85  and  _86
REMARK   37  A    between atoms: _85  and  _88
REMARK   38  A    between atoms: _88  and  _89
REMARK   39  A    between atoms: _92  and  _94
REMARK   40  A    between atoms: _94  and  _95
REMARK   41  A    between atoms: _94  and  _97
REMARK   42  A    between atoms: _100  and  _102
REMARK   43  A    between atoms: _102  and  _103
REMARK   44  A    between atoms: _102  and  _105
REMARK   45  A    between atoms: _105  and  _106
REMARK   46  A    between atoms: _106  and  _107
REMARK   47  A    between atoms: _109  and  _111
REMARK   48  A    between atoms: _111  and  _112
REMARK   49  A    between atoms: _111  and  _114
REMARK   50  A    between atoms: _114  and  _115
REMARK   51  A    between atoms: _118  and  _120
REMARK   52  A    between atoms: _120  and  _121
REMARK   53  A    between atoms: _123  and  _125
REMARK   54  A    between atoms: _125  and  _126
REMARK   55  A    between atoms: _128  and  _130
REMARK   56  A    between atoms: _130  and  _131
REMARK   57  A    between atoms: _130  and  _133
REMARK   58  A    between atoms: _133  and  _134
REMARK   59  A    between atoms: _137  and  _139
REMARK   60  A    between atoms: _139  and  _140
REMARK   61  A    between atoms: _142  and  _144
REMARK   62  A    between atoms: _144  and  _145
REMARK   63  A    between atoms: _147  and  _149
REMARK   64  A    between atoms: _149  and  _150
REMARK   65  A    between atoms: _149  and  _152
REMARK   66  A    between atoms: _152  and  _153
REMARK   67  A    between atoms: _159  and  _161
REMARK   68  A    between atoms: _161  and  _162
REMARK   69  A    between atoms: _161  and  _164
REMARK   70  A    between atoms: _164  and  _165
REMARK   71  A    between atoms: _168  and  _170
REMARK   72  A    between atoms: _170  and  _171
REMARK   73  A    between atoms: _170  and  _173
REMARK   74  A    between atoms: _176  and  _178
REMARK   75  A    between atoms: _178  and  _179
REMARK   76  A    between atoms: _178  and  _181
REMARK   77  A    between atoms: _181  and  _182
REMARK   78  A    between atoms: _186  and  _187
REMARK   79  A    between atoms: _192  and  _194
REMARK   80  A    between atoms: _194  and  _195
REMARK   81  A    between atoms: _194  and  _197
REMARK   82  A    between atoms: _197  and  _198
REMARK   83  A    between atoms: _202  and  _203
REMARK   84  A    between atoms: _208  and  _210
REMARK   85  A    between atoms: _210  and  _211
REMARK   86  A    between atoms: _210  and  _213
REMARK   87  A    between atoms: _216  and  _218
REMARK   88  A    between atoms: _218  and  _219
REMARK   89  A    between atoms: _218  and  _221
REMARK   90  A    between atoms: _221  and  _222
REMARK   91  A    between atoms: _227  and  _229
REMARK   92  A    between atoms: _229  and  _230
REMARK   93  A    between atoms: _229  and  _232
REMARK   94  A    between atoms: _232  and  _233
REMARK   95  A    between atoms: _236  and  _238
REMARK   96  A    between atoms: _238  and  _239
REMARK   97  A    between atoms: _238  and  _241
REMARK   98  A    between atoms: _241  and  _242
REMARK   99  A    between atoms: _245  and  _247
REMARK  100  A    between atoms: _247  and  _248
REMARK  101  A    between atoms: _250  and  _252
REMARK  102  A    between atoms: _252  and  _253
REMARK  103  A    between atoms: _252  and  _255
REMARK  104  A    between atoms: _255  and  _256
REMARK  105  A    between atoms: _256  and  _257
REMARK  106  A    between atoms: _257  and  _258
REMARK  107  A    between atoms: _267  and  _269
REMARK  108  A    between atoms: _269  and  _270
REMARK  109  A    between atoms: _269  and  _272
REMARK  110  A    between atoms: _272  and  _273
REMARK  111  A    between atoms: _278  and  _280
REMARK  112  A    between atoms: _280  and  _281
REMARK  113  A    between atoms: _280  and  _283
REMARK  114  A    between atoms: _283  and  _284
REMARK  115  A    between atoms: _284  and  _285
REMARK  116  A    between atoms: _285  and  _286
REMARK  117  A    between atoms: _295  and  _297
REMARK  118  A    between atoms: _297  and  _298
REMARK  119  A    between atoms: _297  and  _300
REMARK  120  A    between atoms: _300  and  _301
REMARK  121  A    between atoms: _304  and  _306
REMARK  122  A    between atoms: _306  and  _307
REMARK  123  A    between atoms: _306  and  _309
REMARK  124  A    between atoms: _309  and  _310
REMARK  125  A    between atoms: _313  and  _315
REMARK  126  A    between atoms: _315  and  _316
REMARK  127  A    between atoms: _315  and  _318
REMARK  128  A    between atoms: _318  and  _319
REMARK  129  A    between atoms: _322  and  _324
REMARK  130  A    between atoms: _324  and  _325
REMARK  131  A    between atoms: _324  and  _327
REMARK  132  A    between atoms: _327  and  _328
REMARK  133  A    between atoms: _331  and  _333
REMARK  134  A    between atoms: _333  and  _334
REMARK  135  A    between atoms: _336  and  _338
REMARK  136  A    between atoms: _338  and  _339
REMARK  137  A    between atoms: _342  and  _344
REMARK  138  A    between atoms: _344  and  _345
REMARK  139  A    between atoms: _344  and  _347
REMARK  140  A    between atoms: _347  and  _348
REMARK  141  A    between atoms: _351  and  _353
REMARK  142  A    between atoms: _353  and  _354
REMARK  143  A    between atoms: _353  and  _356
REMARK  144  A    between atoms: _356  and  _357
REMARK  145  A    between atoms: _360  and  _362
REMARK  146  A    between atoms: _362  and  _363
REMARK  147  A    between atoms: _362  and  _365
REMARK  148  A    between atoms: _365  and  _366
REMARK  149  A    between atoms: _369  and  _371
REMARK  150  A    between atoms: _371  and  _372
REMARK  151  A    between atoms: _371  and  _374
REMARK  152  A    between atoms: _377  and  _379
REMARK  153  A    between atoms: _379  and  _380
REMARK  154  A    between atoms: _379  and  _382
REMARK  155  A    between atoms: _383  and  _384
REMARK  156  A    between atoms: _384  and  _385
REMARK  157  A    between atoms: _385  and  _386
REMARK  158  A    between atoms: _390  and  _392
REMARK  159  A    between atoms: _392  and  _393
REMARK  160  A    between atoms: _392  and  _395
REMARK  161  A    between atoms: _395  and  _396
REMARK  162  A    between atoms: _396  and  _397
REMARK  163  A    between atoms: _399  and  _401
REMARK  164  A    between atoms: _401  and  _402
REMARK  165  A    between atoms: _401  and  _404
REMARK  166  A    between atoms: _404  and  _405
REMARK  167  A    between atoms: _408  and  _410
REMARK  168  A    between atoms: _410  and  _411
REMARK  169  A    between atoms: _413  and  _415
REMARK  170  A    between atoms: _415  and  _416
REMARK  171  A    between atoms: _418  and  _420
REMARK  172  A    between atoms: _420  and  _421
REMARK  173  A    between atoms: _420  and  _423
REMARK  174  A    between atoms: _423  and  _424
REMARK  175  A    between atoms: _427  and  _429
REMARK  176  A    between atoms: _429  and  _430
REMARK  177  A    between atoms: _432  and  _434
REMARK  178  A    between atoms: _434  and  _435
REMARK  179  A    between atoms: _437  and  _439
REMARK  180  A    between atoms: _439  and  _440
REMARK  181  A    between atoms: _439  and  _442
REMARK  182  A    between atoms: _442  and  _443
REMARK  183  A    between atoms: _449  and  _451
REMARK  184  A    between atoms: _451  and  _452
REMARK  185  A    between atoms: _451  and  _454
REMARK  186  A    between atoms: _454  and  _455
REMARK  187  A    between atoms: _458  and  _460
REMARK  188  A    between atoms: _460  and  _461
REMARK  189  A    between atoms: _460  and  _463
REMARK  190  A    between atoms: _466  and  _468
REMARK  191  A    between atoms: _468  and  _469
REMARK  192  A    between atoms: _468  and  _471
REMARK  193  A    between atoms: _471  and  _472
REMARK  194  A    between atoms: _475  and  _477
REMARK  195  A    between atoms: _477  and  _478
REMARK  196  A    between atoms: _477  and  _480
REMARK  197  A    between atoms: _480  and  _481
REMARK  198  A    between atoms: _485  and  _486
REMARK  199  A    between atoms: _491  and  _493
REMARK  200  A    between atoms: _493  and  _494
REMARK  201  A    between atoms: _493  and  _496
REMARK  202  A    between atoms: _499  and  _501
REMARK  203  A    between atoms: _501  and  _502
REMARK  204  A    between atoms: _501  and  _504
REMARK  205  A    between atoms: _504  and  _505
REMARK  206  A    between atoms: _510  and  _512
REMARK  207  A    between atoms: _512  and  _513
REMARK  208  A    between atoms: _512  and  _515
REMARK  209  A    between atoms: _515  and  _516
REMARK  210  A    between atoms: _519  and  _521
REMARK  211  A    between atoms: _521  and  _522
REMARK  212  A    between atoms: _521  and  _524
REMARK  213  A    between atoms: _524  and  _525
REMARK  214  A    between atoms: _528  and  _530
REMARK  215  A    between atoms: _530  and  _531
REMARK  216  A    between atoms: _533  and  _535
REMARK  217  A    between atoms: _535  and  _536
REMARK  218  A    between atoms: _535  and  _538
REMARK  219  A    between atoms: _538  and  _539
REMARK  220  A    between atoms: _539  and  _540
REMARK  221  A    between atoms: _540  and  _541
REMARK  222  A    between atoms: _550  and  _552
REMARK  223  A    between atoms: _552  and  _553
REMARK  224  A    between atoms: _552  and  _555
REMARK  225  A    between atoms: _555  and  _556
REMARK                            x       y       z     vdW  Elec       q    Type
REMARK                         _______ _______ _______ _____ _____    ______ ____
ROOT
ATOM      1  CA  LEU A   1      16.045  13.351  -4.791  0.00  0.00    +0.133 C 
ENDROOT
BRANCH   1   2
ATOM      2  N   LEU A   1      16.893  14.245  -5.550  0.00  0.00    -0.239 NA
ATOM      3  H   LEU A   1      17.002  15.226  -5.222  0.00  0.00    +0.142 HD
ENDBRANCH   1   2
BRANCH   1   4
ATOM      4  C   LEU A   1      14.581  13.577  -5.189  0.00  0.00    +0.224 C 
ATOM      5  O   LEU A   1      14.152  14.717  -5.462  0.00  0.00    -0.287 OA
ENDBRANCH   1   4
BRANCH   1   6
ATOM      6  CB  LEU A   1      16.165  13.553  -3.289  0.00  0.00    +0.025 C 
BRANCH   6   7
ATOM      7  CG  LEU A   1      17.556  13.704  -2.718  0.00  0.00    +0.002 C 
ATOM      8  CD2 LEU A   1      17.473  13.887  -1.209  0.00  0.00    +0.000 C 
ATOM      9  CD1 LEU A   1      18.418  12.519  -3.152  0.00  0.00    +0.000 C 
ENDBRANCH   6   7
ENDBRANCH   1   6
TORSDOF 4
REMARK  Name = ../refined-set-2016/1izh/1izh_pocket.pdb
REMARK  225 active torsions:
REMARK  status: ('A' for Active; 'I' for Inactive)
REMARK    1  A    between atoms: _1  and  _3
REMARK    2  A    between atoms: _3  and  _4
REMARK    3  A    between atoms: _3  and  _6
REMARK    4  A    between atoms: _6  and  _7
REMARK    5  A    between atoms: _7  and  _8
REMARK    6  A    between atoms: _8  and  _9
REMARK    7  A    between atoms: _18  and  _20
REMARK    8  A    between atoms: _20  and  _21
REMARK    9  A    between atoms: _20  and  _23
REMARK   10  A    between atoms: _23  and  _24
REMARK   11  A    between atoms: _27  and  _29
REMARK   12  A    between atoms: _29  and  _30
REMARK   13  A    between atoms: _29  and  _32
REMARK   14  A    between atoms: _32  and  _33
REMARK   15  A    between atoms: _36  and  _38
REMARK   16  A    between atoms: _38  and  _39
REMARK   17  A    between atoms: _38  and  _41
REMARK   18  A    between atoms: _41  and  _42
REMARK   19  A    between atoms: _45  and  _47
REMARK   20  A    between atoms: _47  and  _48
REMARK   21  A    between atoms: _47  and  _50
REMARK   22  A    between atoms: _50  and  _51
REMARK   23  A    between atoms: _54  and  _56
REMARK   24  A    between atoms: _56  and  _57
REMARK   25  A    between atoms: _59  and  _61
REMARK   26  A    between atoms: _61  and  _62
REMARK   27  A    between atoms: _65  and  _67
REMARK   28  A    between atoms: _67  and  _68
REMARK   29  A    between atoms: _67  and  _70
REMARK   30  A    between atoms: _70  and  _71
REMARK   31  A    between atoms: _74  and  _76
REMARK   32  A    between atoms: _76  and  _77
REMARK   33  A    between atoms: _76  and  _79
REMARK   34  A    between atoms: _79  and  _80
REMARK   35  A    between atoms: _83  and  _85
REMARK   36  A    between atoms: _85  and  _86
REMARK   37  A    between atoms: _85  and  _88
REMARK   38  A    between atoms: _88  and  _89
REMARK   39  A    between atoms: _92  and  _94
REMARK   40  A    between atoms: _94  and  _95
REMARK   41  A    between atoms: _94  and  _97
REMARK   42  A    between atoms: _100  and  _102
REMARK   43  A    between atoms: _102  and  _103
REMARK   44  A    between atoms: _102  and  _105
REMARK   45  A    between atoms: _105  and  _106
REMARK   46  A    between atoms: _106  and  _107
REMARK   47  A    between atoms: _109  and  _111
REMARK   48  A    between atoms: _111  and  _112
REMARK   49  A    between atoms: _111  and  _114
REMARK   50  A    between atoms: _114  and  _115
REMARK   51  A    between atoms: _118  and  _120
REMARK   52  A    between atoms: _120  and  _121
REMARK   53  A    between atoms: _123  and  _125
REMARK   54  A    between atoms: _125  and  _126
REMARK   55  A    between atoms: _128  and  _130
REMARK   56  A    between atoms: _130  and  _131
REMARK   57  A    between atoms: _130  and  _133
REMARK   58  A    between atoms: _133  and  _134
REMARK   59  A    between atoms: _137  and  _139
REMARK   60  A    between atoms: _139  and  _140
REMARK   61  A    between atoms: _142  and  _144
REMARK   62  A    between atoms: _144  and  _145
REMARK   63  A    between atoms: _147  and  _149
REMARK   64  A    between atoms: _149  and  _150
REMARK   65  A    between atoms: _149  and  _152
REMARK   66  A    between atoms: _152  and  _153
REMARK   67  A    between atoms: _159  and  _161
REMARK   68  A    between atoms: _161  and  _162
REMARK   69  A    between atoms: _161  and  _164
REMARK   70  A    between atoms: _164  and  _165
REMARK   71  A    between atoms: _168  and  _170
REMARK   72  A    between atoms: _170  and  _171
REMARK   73  A    between atoms: _170  and  _173
REMARK   74  A    between atoms: _176  and  _178
REMARK   75  A    between atoms: _178  and  _179
REMARK   76  A    between atoms: _178  and  _181
REMARK   77  A    between atoms: _181  and  _182
REMARK   78  A    between atoms: _186  and  _187
REMARK   79  A    between atoms: _192  and  _194
REMARK   80  A    between atoms: _194  and  _195
REMARK   81  A    between atoms: _194  and  _197
REMARK   82  A    between atoms: _197  and  _198
REMARK   83  A    between atoms: _202  and  _203
REMARK   84  A    between atoms: _208  and  _210
REMARK   85  A    between atoms: _210  and  _211
REMARK   86  A    between atoms: _210  and  _213
REMARK   87  A    between atoms: _216  and  _218
REMARK   88  A    between atoms: _218  and  _219
REMARK   89  A    between atoms: _218  and  _221
REMARK   90  A    between atoms: _221  and  _222
REMARK   91  A    between atoms: _227  and  _229
REMARK   92  A    between atoms: _229  and  _230
REMARK   93  A    between atoms: _229  and  _232
REMARK   94  A    between atoms: _232  and  _233
REMARK   95  A    between atoms: _236  and  _238
REMARK   96  A    between atoms: _238  and  _239
REMARK   97  A    between atoms: _238  and  _241
REMARK   98  A    between atoms: _241  and  _242
REMARK   99  A    between atoms: _245  and  _247
REMARK  100  A    between atoms: _247  and  _248
REMARK  101  A    between atoms: _250  and  _252
REMARK  102  A    between atoms: _252  and  _253
REMARK  103  A    between atoms: _252  and  _255
REMARK  104  A    between atoms: _255  and  _256
REMARK  105  A    between atoms: _256  and  _257
REMARK  106  A    between atoms: _257  and  _258
REMARK  107  A    between atoms: _267  and  _269
REMARK  108  A    between atoms: _269  and  _270
REMARK  109  A    between atoms: _269  and  _272
REMARK  110  A    between atoms: _272  and  _273
REMARK  111  A    between atoms: _278  and  _280
REMARK  112  A    between atoms: _280  and  _281
REMARK  113  A    between atoms: _280  and  _283
REMARK  114  A    between atoms: _283  and  _284
REMARK  115  A    between atoms: _284  and  _285
REMARK  116  A    between atoms: _285  and  _286
REMARK  117  A    between atoms: _295  and  _297
REMARK  118  A    between atoms: _297  and  _298
REMARK  119  A    between atoms: _297  and  _300
REMARK  120  A    between atoms: _300  and  _301
REMARK  121  A    between atoms: _304  and  _306
REMARK  122  A    between atoms: _306  and  _307
REMARK  123  A    between atoms: _306  and  _309
REMARK  124  A    between atoms: _309  and  _310
REMARK  125  A    between atoms: _313  and  _315
REMARK  126  A    between atoms: _315  and  _316
REMARK  127  A    between atoms: _315  and  _318
REMARK  128  A    between atoms: _318  and  _319
REMARK  129  A    between atoms: _322  and  _324
REMARK  130  A    between atoms: _324  and  _325
REMARK  131  A    between atoms: _324  and  _327
REMARK  132  A    between atoms: _327  and  _328
REMARK  133  A    between atoms: _331  and  _333
REMARK  134  A    between atoms: _333  and  _334
REMARK  135  A    between atoms: _336  and  _338
REMARK  136  A    between atoms: _338  and  _339
REMARK  137  A    between atoms: _342  and  _344
REMARK  138  A    between atoms: _344  and  _345
REMARK  139  A    between atoms: _344  and  _347
REMARK  140  A    between atoms: _347  and  _348
REMARK  141  A    between atoms: _351  and  _353
REMARK  142  A    between atoms: _353  and  _354
REMARK  143  A    between atoms: _353  and  _356
REMARK  144  A    between atoms: _356  and  _357
REMARK  145  A    between atoms: _360  and  _362
REMARK  146  A    between atoms: _362  and  _363
REMARK  147  A    between atoms: _362  and  _365
REMARK  148  A    between atoms: _365  and  _366
REMARK  149  A    between atoms: _369  and  _371
REMARK  150  A    between atoms: _371  and  _372
REMARK  151  A    between atoms: _371  and  _374
REMARK  152  A    between atoms: _377  and  _379
REMARK  153  A    between atoms: _379  and  _380
REMARK  154  A    between atoms: _379  and  _382
REMARK  155  A    between atoms: _383  and  _384
REMARK  156  A    between atoms: _384  and  _385
REMARK  157  A    between atoms: _385  and  _386
REMARK  158  A    between atoms: _390  and  _392
REMARK  159  A    between atoms: _392  and  _393
REMARK  160  A    between atoms: _392  and  _395
REMARK  161  A    between atoms: _395  and  _396
REMARK  162  A    between atoms: _396  and  _397
REMARK  163  A    between atoms: _399  and  _401
REMARK  164  A    between atoms: _401  and  _402
REMARK  165  A    between atoms: _401  and  _404
REMARK  166  A    between atoms: _404  and  _405
REMARK  167  A    between atoms: _408  and  _410
REMARK  168  A    between atoms: _410  and  _411
REMARK  169  A    between atoms: _413  and  _415
REMARK  170  A    between atoms: _415  and  _416
REMARK  171  A    between atoms: _418  and  _420
REMARK  172  A    between atoms: _420  and  _421
REMARK  173  A    between atoms: _420  and  _423
REMARK  174  A    between atoms: _423  and  _424
REMARK  175  A    between atoms: _427  and  _429
REMARK  176  A    between atoms: _429  and  _430
REMARK  177  A    between atoms: _432  and  _434
REMARK  178  A    between atoms: _434  and  _435
REMARK  179  A    between atoms: _437  and  _439
REMARK  180  A    between atoms: _439  and  _440
REMARK  181  A    between atoms: _439  and  _442
REMARK  182  A    between atoms: _442  and  _443
REMARK  183  A    between atoms: _449  and  _451
REMARK  184  A    between atoms: _451  and  _452
REMARK  185  A    between atoms: _451  and  _454
REMARK  186  A    between atoms: _454  and  _455
REMARK  187  A    between atoms: _458  and  _460
REMARK  188  A    between atoms: _460  and  _461
REMARK  189  A    between atoms: _460  and  _463
REMARK  190  A    between atoms: _466  and  _468
REMARK  191  A    between atoms: _468  and  _469
REMARK  192  A    between atoms: _468  and  _471
REMARK  193  A    between atoms: _471  and  _472
REMARK  194  A    between atoms: _475  and  _477
REMARK  195  A    between atoms: _477  and  _478
REMARK  196  A    between atoms: _477  and  _480
REMARK  197  A    between atoms: _480  and  _481
REMARK  198  A    between atoms: _485  and  _486
REMARK  199  A    between atoms: _491  and  _493
REMARK  200  A    between atoms: _493  and  _494
REMARK  201  A    between atoms: _493  and  _496
REMARK  202  A    between atoms: _499  and  _501
REMARK  203  A    between atoms: _501  and  _502
REMARK  204  A    between atoms: _501  and  _504
REMARK  205  A    between atoms: _504  and  _505
REMARK  206  A    between atoms: _510  and  _512
REMARK  207  A    between atoms: _512  and  _513
REMARK  208  A    between atoms: _512  and  _515
REMARK  209  A    between atoms: _515  and  _516
REMARK  210  A    between atoms: _519  and  _521
REMARK  211  A    between atoms: _521  and  _522
REMARK  212  A    between atoms: _521  and  _524
REMARK  213  A    between atoms: _524  and  _525
REMARK  214  A    between atoms: _528  and  _530
REMARK  215  A    between atoms: _530  and  _531
REMARK  216  A    between atoms: _533  and  _535
REMARK  217  A    between atoms: _535  and  _536
REMARK  218  A    between atoms: _535  and  _538
REMARK  219  A    between atoms: _538  and  _539
REMARK  220  A    between atoms: _539  and  _540
REMARK  221  A    between atoms: _540  and  _541
REMARK  222  A    between atoms: _550  and  _552
REMARK  223  A    between atoms: _552  and  _553
REMARK  224  A    between atoms: _552  and  _555
REMARK  225  A    between atoms: _555  and  _556
REMARK                            x       y       z     vdW  Elec       q    Type
REMARK                         _______ _______ _______ _____ _____    ______ ____
ROOT
ATOM      1  C   ILE A   5      14.808  22.213  -3.859  0.00  0.00    +0.241 C 
ATOM      2  N   ILE A   6      15.485  23.335  -4.066  0.00  0.00    -0.297 N 
ATOM      3  H   ILE A   6      15.015  24.240  -3.864  0.00  0.00    +0.150 HD
ATOM      4  O   ILE A   5      15.238  21.064  -4.114  0.00  0.00    -0.273 OA
ENDROOT
BRANCH   2   5
ATOM      5  CA  ILE A   6      16.847  23.362  -4.559  0.00  0.00    +0.149 C 
BRANCH   5   6
ATOM      6  C   ILE A   6      17.768  23.573  -3.380  0.00  0.00    +0.241 C 
ATOM      7  O   ILE A   6      17.768  24.652  -2.764  0.00  0.00    -0.273 OA
ATOM      8  N   GLY A   7      18.517  22.555  -3.055  0.00  0.00    -0.295 N 
ATOM      9  H   GLY A   7      18.534  21.714  -3.667  0.00  0.00    +0.150 HD
BRANCH   8  10
ATOM     10  CA  GLY A   7      19.320  22.580  -1.862  0.00  0.00    +0.176 C 
BRANCH  10  11
ATOM     11  C   GLY A   7      20.771  22.925  -2.102  0.00  0.00    +0.243 C 
ATOM     12  N   ARG A   8      21.579  22.814  -1.049  0.00  0.00    -0.297 N 
ATOM     13  H   ARG A   8      21.247  22.350  -0.180  0.00  0.00    +0.150 HD
ATOM     14  O   GLY A   7      21.193  23.261  -3.236  0.00  0.00    -0.273 OA
BRANCH  12  15
ATOM     15  CA  ARG A   8      22.936  23.350  -1.125  0.00  0.00    +0.149 C 
BRANCH  15  16
ATOM     16  C   ARG A   8      23.787  22.589  -2.134  0.00  0.00    +0.241 C 
ATOM     17  N   ASN A   9      23.513  21.298  -2.323  0.00  0.00    -0.298 N 
ATOM     18  H   ASN A   9      22.759  20.828  -1.782  0.00  0.00    +0.150 HD
ATOM     19  O   ARG A   8      24.732  23.169  -2.733  0.00  0.00    -0.273 OA
BRANCH  17  20
ATOM     20  CA  ASN A   9      24.299  20.559  -3.311  0.00  0.00    +0.146 C 
BRANCH  20  21
ATOM     21  C   ASN A   9      24.323  21.272  -4.673  0.00  0.00    +0.227 C 
ATOM     22  O   ASN A   9      25.396  21.355  -5.330  0.00  0.00    -0.286 OA
ENDBRANCH  20  21
BRANCH  20  23
ATOM     23  CB  ASN A   9      23.886  19.102  -3.439  0.00  0.00    +0.112 C 
BRANCH  23  24
ATOM     24  CG  ASN A   9      22.574  18.940  -4.143  0.00  0.00    +0.222 C 
ATOM     25  OD1 ASN A   9      21.523  19.553  -3.773  0.00  0.00    -0.275 OA
ATOM     26  ND2 ASN A   9      22.608  18.178  -5.200  0.00  0.00    -0.329 N 
ATOM     27 HD21 ASN A   9      23.490  17.696  -5.465  0.00  0.00    +0.145 HD
ATOM     28 HD22 ASN A   9      21.753  18.052  -5.778  0.00  0.00    +0.145 HD
ENDBRANCH  23  24
ENDBRANCH  20  23
ENDBRANCH  17  20
ENDBRANCH  15  16
BRANCH  15  29
ATOM     29  CB  ARG A   8      23.629  23.398   0.247  0.00  0.00    +0.033 C 
BRANCH  29  30
ATOM     30  CG  ARG A   8      23.035  24.322   1.264  0.00  0.00    +0.045 C 
BRANCH  30  31
ATOM     31  CD  ARG A   8      23.877  24.447   2.532  0.00  0.00    +0.174 C 
BRANCH  31  32
ATOM     32  NE  ARG A   8      23.909  23.196   3.285  0.00  0.00    -0.265 N 
ATOM     33  HE  ARG A   8      23.104  22.978   3.907  0.00  0.00    +0.259 HD
ATOM     34  CZ  ARG A   8      24.920  22.307   3.221  0.00  0.00    +0.342 C 
ATOM     35  NH2 ARG A   8      24.824  21.191   3.882  0.00  0.00    -0.292 N 
ATOM     36 HH21 ARG A   8      23.975  20.994   4.450  0.00  0.00    +0.255 HD
ATOM     37 HH22 ARG A   8      25.596  20.495   3.842  0.00  0.00    +0.255 HD
ATOM     38  NH1 ARG A   8      26.047  22.569   2.545  0.00  0.00    -0.292 N 
ATOM     39 HH11 ARG A   8      26.810  21.863   2.513  0.00  0.00    +0.255 HD
ATOM     40 HH12 ARG A   8      26.158  23.478   2.052  0.00  0.00    +0.255 HD
ENDBRANCH  31  32
ENDBRANCH  30  31
ENDBRANCH  29  30
ENDBRANCH  15  29
ENDBRANCH  12  15
ENDBRANCH  10  11
ENDBRANCH   8  10
ENDBRANCH   5   6
BRANCH   5  41
ATOM     41  CB  ILE A   6      17.120  24.514  -5.547  0.00  0.00    +0.027 C 
ATOM     42  CG2 ILE A   6      18.545  24.437  -6.030  0.00  0.00    +0.002 C 
BRANCH  41  43
ATOM     43  CG1 ILE A   6      16.183  24.452  -6.753  0.00  0.00    +0.002 C 
ATOM     44  CD1 ILE A   6      15.935  23.103  -7.270  0.00  0.00    +0.000 C 
ENDBRANCH  41  43
ENDBRANCH   5  41
ENDBRANCH   2   5
BRANCH   1  45
ATOM     45  CA  ILE A   5      13.436  22.372  -3.213  0.00  0.00    +0.149 C 
BRANCH  45  47
ATOM     46  C   ASN A   4      11.312  22.336  -4.466  0.00  0.00    +0.241 C 
ATOM     47  N   ILE A   5      12.413  21.710  -4.052  0.00  0.00    -0.297 N 
ATOM     48  H   ILE A   5      12.559  20.718  -4.329  0.00  0.00    +0.150 HD
ATOM     49  O   ASN A   4      11.100  23.519  -4.276  0.00  0.00    -0.273 OA
BRANCH  46  50
ATOM     50  CA  ASN A   4      10.299  21.494  -5.172  0.00  0.00    +0.158 C 
BRANCH  50  53
ATOM     51  C   VAL A   3       8.750  21.360  -3.272  0.00  0.00    +0.241 C 
ATOM     52  O   VAL A   3       9.578  20.729  -2.561  0.00  0.00    -0.273 OA
ATOM     53  N   ASN A   4       9.001  21.739  -4.521  0.00  0.00    -0.297 N 
ATOM     54  H   ASN A   4       8.255  22.226  -5.057  0.00  0.00    +0.150 HD
BRANCH  51  55
ATOM     55  CA  VAL A   3       7.394  21.737  -2.706  0.00  0.00    +0.149 C 
BRANCH  55  57
ATOM     56  C   PRO A   2       5.783  20.532  -1.221  0.00  0.00    +0.241 C 
ATOM     57  N   VAL A   3       7.036  20.803  -1.595  0.00  0.00    -0.297 N 
ATOM     58  H   VAL A   3       7.810  20.336  -1.082  0.00  0.00    +0.150 HD
ATOM     59  O   PRO A   2       4.766  20.987  -1.780  0.00  0.00    -0.273 OA
BRANCH  56  65
ATOM     60  C   THR A   1       6.952  17.650  -0.793  0.00  0.00    +0.244 C 
ATOM     61  N   PRO A   2       6.663  18.559   0.142  0.00  0.00    -0.272 N 
ATOM     62  CD  PRO A   2       7.151  18.607   1.527  0.00  0.00    +0.094 C 
ATOM     63  CG  PRO A   2       5.978  19.389   2.194  0.00  0.00    +0.024 C 
ATOM     64  CB  PRO A   2       5.492  20.275   1.252  0.00  0.00    +0.031 C 
ATOM     65  CA  PRO A   2       5.577  19.530  -0.080  0.00  0.00    +0.152 C 
ATOM     66  O   THR A   1       6.309  17.562  -1.842  0.00  0.00    -0.273 OA
BRANCH  60  67
ATOM     67  CA  THR A   1       8.062  16.686  -0.515  0.00  0.00    +0.172 C 
BRANCH  67  68
ATOM     68  CB  THR A   1       9.338  17.277  -1.105  0.00  0.00    +0.135 C 
ATOM     69  CG2 THR A   1       9.287  17.392  -2.572  0.00  0.00    +0.034 C 
BRANCH  68  70
ATOM     70  OG1 THR A   1       9.470  18.609  -0.651  0.00  0.00    -0.383 OA
ATOM     71  HG1 THR A   1      10.296  19.004  -1.028  0.00  0.00    +0.210 HD
ENDBRANCH  68  70
ENDBRANCH  67  68
BRANCH  67  72
ATOM     72  N   THR A   1       7.747  15.415  -1.116  0.00  0.00    -0.236 NA
ATOM     73  H   THR A   1       8.110  15.180  -2.062  0.00  0.00    +0.142 HD
ENDBRANCH  67  72
ENDBRANCH  60  67
ENDBRANCH  56  65
ENDBRANCH  55  57
BRANCH  55  74
ATOM     74  CB  VAL A   3       7.531  23.210  -2.233  0.00  0.00    +0.027 C 
ATOM     75  CG2 VAL A   3       8.522  23.306  -1.072  0.00  0.00    +0.002 C 
ATOM     76  CG1 VAL A   3       6.185  23.807  -1.876  0.00  0.00    +0.002 C 
ENDBRANCH  55  74
ENDBRANCH  51  55
ENDBRANCH  50  53
BRANCH  50  77
ATOM     77  CB  ASN A   4      10.288  21.842  -6.645  0.00  0.00    +0.114 C 
BRANCH  77  78
ATOM     78  CG  ASN A   4       9.383  20.911  -7.494  0.00  0.00    +0.222 C 
ATOM     79  OD1 ASN A   4       9.293  19.732  -7.235  0.00  0.00    -0.275 OA
ATOM     80  ND2 ASN A   4       8.673  21.480  -8.510  0.00  0.00    -0.329 N 
ATOM     81 HD21 ASN A   4       8.772  22.496  -8.708  0.00  0.00    +0.145 HD
ATOM     82 HD22 ASN A   4       8.033  20.898  -9.087  0.00  0.00    +0.145 HD
ENDBRANCH  77  78
ENDBRANCH  50  77
ENDBRANCH  46  50
ENDBRANCH  45  47
BRANCH  45  83
ATOM     83  CB  ILE A   5      13.511  21.668  -1.810  0.00  0.00    +0.027 C 
ATOM     84  CG2 ILE A   5      14.759  22.029  -1.073  0.00  0.00    +0.002 C 
BRANCH  83  85
ATOM     85  CG1 ILE A   5      12.270  22.048  -0.981  0.00  0.00    +0.002 C 
ATOM     86  CD1 ILE A   5      12.144  21.204   0.335  0.00  0.00    +0.000 C 
ENDBRANCH  83  85
ENDBRANCH  45  83
ENDBRANCH   1  45
TORSDOF 32
REMARK  Name = ../refined-set-2016/1izh/1izh_pocket.pdb
REMARK  225 active torsions:
REMARK  status: ('A' for Active; 'I' for Inactive)
REMARK    1  A    between atoms: _1  and  _3
REMARK    2  A    between atoms: _3  and  _4
REMARK    3  A    between atoms: _3  and  _6
REMARK    4  A    between atoms: _6  and  _7
REMARK    5  A    between atoms: _7  and  _8
REMARK    6  A    between atoms: _8  and  _9
REMARK    7  A    between atoms: _18  and  _20
REMARK    8  A    between atoms: _20  and  _21
REMARK    9  A    between atoms: _20  and  _23
REMARK   10  A    between atoms: _23  and  _24
REMARK   11  A    between atoms: _27  and  _29
REMARK   12  A    between atoms: _29  and  _30
REMARK   13  A    between atoms: _29  and  _32
REMARK   14  A    between atoms: _32  and  _33
REMARK   15  A    between atoms: _36  and  _38
REMARK   16  A    between atoms: _38  and  _39
REMARK   17  A    between atoms: _38  and  _41
REMARK   18  A    between atoms: _41  and  _42
REMARK   19  A    between atoms: _45  and  _47
REMARK   20  A    between atoms: _47  and  _48
REMARK   21  A    between atoms: _47  and  _50
REMARK   22  A    between atoms: _50  and  _51
REMARK   23  A    between atoms: _54  and  _56
REMARK   24  A    between atoms: _56  and  _57
REMARK   25  A    between atoms: _59  and  _61
REMARK   26  A    between atoms: _61  and  _62
REMARK   27  A    between atoms: _65  and  _67
REMARK   28  A    between atoms: _67  and  _68
REMARK   29  A    between atoms: _67  and  _70
REMARK   30  A    between atoms: _70  and  _71
REMARK   31  A    between atoms: _74  and  _76
REMARK   32  A    between atoms: _76  and  _77
REMARK   33  A    between atoms: _76  and  _79
REMARK   34  A    between atoms: _79  and  _80
REMARK   35  A    between atoms: _83  and  _85
REMARK   36  A    between atoms: _85  and  _86
REMARK   37  A    between atoms: _85  and  _88
REMARK   38  A    between atoms: _88  and  _89
REMARK   39  A    between atoms: _92  and  _94
REMARK   40  A    between atoms: _94  and  _95
REMARK   41  A    between atoms: _94  and  _97
REMARK   42  A    between atoms: _100  and  _102
REMARK   43  A    between atoms: _102  and  _103
REMARK   44  A    between atoms: _102  and  _105
REMARK   45  A    between atoms: _105  and  _106
REMARK   46  A    between atoms: _106  and  _107
REMARK   47  A    between atoms: _109  and  _111
REMARK   48  A    between atoms: _111  and  _112
REMARK   49  A    between atoms: _111  and  _114
REMARK   50  A    between atoms: _114  and  _115
REMARK   51  A    between atoms: _118  and  _120
REMARK   52  A    between atoms: _120  and  _121
REMARK   53  A    between atoms: _123  and  _125
REMARK   54  A    between atoms: _125  and  _126
REMARK   55  A    between atoms: _128  and  _130
REMARK   56  A    between atoms: _130  and  _131
REMARK   57  A    between atoms: _130  and  _133
REMARK   58  A    between atoms: _133  and  _134
REMARK   59  A    between atoms: _137  and  _139
REMARK   60  A    between atoms: _139  and  _140
REMARK   61  A    between atoms: _142  and  _144
REMARK   62  A    between atoms: _144  and  _145
REMARK   63  A    between atoms: _147  and  _149
REMARK   64  A    between atoms: _149  and  _150
REMARK   65  A    between atoms: _149  and  _152
REMARK   66  A    between atoms: _152  and  _153
REMARK   67  A    between atoms: _159  and  _161
REMARK   68  A    between atoms: _161  and  _162
REMARK   69  A    between atoms: _161  and  _164
REMARK   70  A    between atoms: _164  and  _165
REMARK   71  A    between atoms: _168  and  _170
REMARK   72  A    between atoms: _170  and  _171
REMARK   73  A    between atoms: _170  and  _173
REMARK   74  A    between atoms: _176  and  _178
REMARK   75  A    between atoms: _178  and  _179
REMARK   76  A    between atoms: _178  and  _181
REMARK   77  A    between atoms: _181  and  _182
REMARK   78  A    between atoms: _186  and  _187
REMARK   79  A    between atoms: _192  and  _194
REMARK   80  A    between atoms: _194  and  _195
REMARK   81  A    between atoms: _194  and  _197
REMARK   82  A    between atoms: _197  and  _198
REMARK   83  A    between atoms: _202  and  _203
REMARK   84  A    between atoms: _208  and  _210
REMARK   85  A    between atoms: _210  and  _211
REMARK   86  A    between atoms: _210  and  _213
REMARK   87  A    between atoms: _216  and  _218
REMARK   88  A    between atoms: _218  and  _219
REMARK   89  A    between atoms: _218  and  _221
REMARK   90  A    between atoms: _221  and  _222
REMARK   91  A    between atoms: _227  and  _229
REMARK   92  A    between atoms: _229  and  _230
REMARK   93  A    between atoms: _229  and  _232
REMARK   94  A    between atoms: _232  and  _233
REMARK   95  A    between atoms: _236  and  _238
REMARK   96  A    between atoms: _238  and  _239
REMARK   97  A    between atoms: _238  and  _241
REMARK   98  A    between atoms: _241  and  _242
REMARK   99  A    between atoms: _245  and  _247
REMARK  100  A    between atoms: _247  and  _248
REMARK  101  A    between atoms: _250  and  _252
REMARK  102  A    between atoms: _252  and  _253
REMARK  103  A    between atoms: _252  and  _255
REMARK  104  A    between atoms: _255  and  _256
REMARK  105  A    between atoms: _256  and  _257
REMARK  106  A    between atoms: _257  and  _258
REMARK  107  A    between atoms: _267  and  _269
REMARK  108  A    between atoms: _269  and  _270
REMARK  109  A    between atoms: _269  and  _272
REMARK  110  A    between atoms: _272  and  _273
REMARK  111  A    between atoms: _278  and  _280
REMARK  112  A    between atoms: _280  and  _281
REMARK  113  A    between atoms: _280  and  _283
REMARK  114  A    between atoms: _283  and  _284
REMARK  115  A    between atoms: _284  and  _285
REMARK  116  A    between atoms: _285  and  _286
REMARK  117  A    between atoms: _295  and  _297
REMARK  118  A    between atoms: _297  and  _298
REMARK  119  A    between atoms: _297  and  _300
REMARK  120  A    between atoms: _300  and  _301
REMARK  121  A    between atoms: _304  and  _306
REMARK  122  A    between atoms: _306  and  _307
REMARK  123  A    between atoms: _306  and  _309
REMARK  124  A    between atoms: _309  and  _310
REMARK  125  A    between atoms: _313  and  _315
REMARK  126  A    between atoms: _315  and  _316
REMARK  127  A    between atoms: _315  and  _318
REMARK  128  A    between atoms: _318  and  _319
REMARK  129  A    between atoms: _322  and  _324
REMARK  130  A    between atoms: _324  and  _325
REMARK  131  A    between atoms: _324  and  _327
REMARK  132  A    between atoms: _327  and  _328
REMARK  133  A    between atoms: _331  and  _333
REMARK  134  A    between atoms: _333  and  _334
REMARK  135  A    between atoms: _336  and  _338
REMARK  136  A    between atoms: _338  and  _339
REMARK  137  A    between atoms: _342  and  _344
REMARK  138  A    between atoms: _344  and  _345
REMARK  139  A    between atoms: _344  and  _347
REMARK  140  A    between atoms: _347  and  _348
REMARK  141  A    between atoms: _351  and  _353
REMARK  142  A    between atoms: _353  and  _354
REMARK  143  A    between atoms: _353  and  _356
REMARK  144  A    between atoms: _356  and  _357
REMARK  145  A    between atoms: _360  and  _362
REMARK  146  A    between atoms: _362  and  _363
REMARK  147  A    between atoms: _362  and  _365
REMARK  148  A    between atoms: _365  and  _366
REMARK  149  A    between atoms: _369  and  _371
REMARK  150  A    between atoms: _371  and  _372
REMARK  151  A    between atoms: _371  and  _374
REMARK  152  A    between atoms: _377  and  _379
REMARK  153  A    between atoms: _379  and  _380
REMARK  154  A    between atoms: _379  and  _382
REMARK  155  A    between atoms: _383  and  _384
REMARK  156  A    between atoms: _384  and  _385
REMARK  157  A    between atoms: _385  and  _386
REMARK  158  A    between atoms: _390  and  _392
REMARK  159  A    between atoms: _392  and  _393
REMARK  160  A    between atoms: _392  and  _395
REMARK  161  A    between atoms: _395  and  _396
REMARK  162  A    between atoms: _396  and  _397
REMARK  163  A    between atoms: _399  and  _401
REMARK  164  A    between atoms: _401  and  _402
REMARK  165  A    between atoms: _401  and  _404
REMARK  166  A    between atoms: _404  and  _405
REMARK  167  A    between atoms: _408  and  _410
REMARK  168  A    between atoms: _410  and  _411
REMARK  169  A    between atoms: _413  and  _415
REMARK  170  A    between atoms: _415  and  _416
REMARK  171  A    between atoms: _418  and  _420
REMARK  172  A    between atoms: _420  and  _421
REMARK  173  A    between atoms: _420  and  _423
REMARK  174  A    between atoms: _423  and  _424
REMARK  175  A    between atoms: _427  and  _429
REMARK  176  A    between atoms: _429  and  _430
REMARK  177  A    between atoms: _432  and  _434
REMARK  178  A    between atoms: _434  and  _435
REMARK  179  A    between atoms: _437  and  _439
REMARK  180  A    between atoms: _439  and  _440
REMARK  181  A    between atoms: _439  and  _442
REMARK  182  A    between atoms: _442  and  _443
REMARK  183  A    between atoms: _449  and  _451
REMARK  184  A    between atoms: _451  and  _452
REMARK  185  A    between atoms: _451  and  _454
REMARK  186  A    between atoms: _454  and  _455
REMARK  187  A    between atoms: _458  and  _460
REMARK  188  A    between atoms: _460  and  _461
REMARK  189  A    between atoms: _460  and  _463
REMARK  190  A    between atoms: _466  and  _468
REMARK  191  A    between atoms: _468  and  _469
REMARK  192  A    between atoms: _468  and  _471
REMARK  193  A    between atoms: _471  and  _472
REMARK  194  A    between atoms: _475  and  _477
REMARK  195  A    between atoms: _477  and  _478
REMARK  196  A    between atoms: _477  and  _480
REMARK  197  A    between atoms: _480  and  _481
REMARK  198  A    between atoms: _485  and  _486
REMARK  199  A    between atoms: _491  and  _493
REMARK  200  A    between atoms: _493  and  _494
REMARK  201  A    between atoms: _493  and  _496
REMARK  202  A    between atoms: _499  and  _501
REMARK  203  A    between atoms: _501  and  _502
REMARK  204  A    between atoms: _501  and  _504
REMARK  205  A    between atoms: _504  and  _505
REMARK  206  A    between atoms: _510  and  _512
REMARK  207  A    between atoms: _512  and  _513
REMARK  208  A    between atoms: _512  and  _515
REMARK  209  A    between atoms: _515  and  _516
REMARK  210  A    between atoms: _519  and  _521
REMARK  211  A    between atoms: _521  and  _522
REMARK  212  A    between atoms: _521  and  _524
REMARK  213  A    between atoms: _524  and  _525
REMARK  214  A    between atoms: _528  and  _530
REMARK  215  A    between atoms: _530  and  _531
REMARK  216  A    between atoms: _533  and  _535
REMARK  217  A    between atoms: _535  and  _536
REMARK  218  A    between atoms: _535  and  _538
REMARK  219  A    between atoms: _538  and  _539
REMARK  220  A    between atoms: _539  and  _540
REMARK  221  A    between atoms: _540  and  _541
REMARK  222  A    between atoms: _550  and  _552
REMARK  223  A    between atoms: _552  and  _553
REMARK  224  A    between atoms: _552  and  _555
REMARK  225  A    between atoms: _555  and  _556
REMARK                            x       y       z     vdW  Elec       q    Type
REMARK                         _______ _______ _______ _____ _____    ______ ____
ROOT
ATOM      1  O   HOH     1      10.937  30.619   1.736  0.00  0.00    +0.000 OA
ENDROOT
TORSDOF 0
REMARK  Name = ../refined-set-2016/1izh/1izh_pocket.pdb
REMARK  225 active torsions:
REMARK  status: ('A' for Active; 'I' for Inactive)
REMARK    1  A    between atoms: _1  and  _3
REMARK    2  A    between atoms: _3  and  _4
REMARK    3  A    between atoms: _3  and  _6
REMARK    4  A    between atoms: _6  and  _7
REMARK    5  A    between atoms: _7  and  _8
REMARK    6  A    between atoms: _8  and  _9
REMARK    7  A    between atoms: _18  and  _20
REMARK    8  A    between atoms: _20  and  _21
REMARK    9  A    between atoms: _20  and  _23
REMARK   10  A    between atoms: _23  and  _24
REMARK   11  A    between atoms: _27  and  _29
REMARK   12  A    between atoms: _29  and  _30
REMARK   13  A    between atoms: _29  and  _32
REMARK   14  A    between atoms: _32  and  _33
REMARK   15  A    between atoms: _36  and  _38
REMARK   16  A    between atoms: _38  and  _39
REMARK   17  A    between atoms: _38  and  _41
REMARK   18  A    between atoms: _41  and  _42
REMARK   19  A    between atoms: _45  and  _47
REMARK   20  A    between atoms: _47  and  _48
REMARK   21  A    between atoms: _47  and  _50
REMARK   22  A    between atoms: _50  and  _51
REMARK   23  A    between atoms: _54  and  _56
REMARK   24  A    between atoms: _56  and  _57
REMARK   25  A    between atoms: _59  and  _61
REMARK   26  A    between atoms: _61  and  _62
REMARK   27  A    between atoms: _65  and  _67
REMARK   28  A    between atoms: _67  and  _68
REMARK   29  A    between atoms: _67  and  _70
REMARK   30  A    between atoms: _70  and  _71
REMARK   31  A    between atoms: _74  and  _76
REMARK   32  A    between atoms: _76  and  _77
REMARK   33  A    between atoms: _76  and  _79
REMARK   34  A    between atoms: _79  and  _80
REMARK   35  A    between atoms: _83  and  _85
REMARK   36  A    between atoms: _85  and  _86
REMARK   37  A    between atoms: _85  and  _88
REMARK   38  A    between atoms: _88  and  _89
REMARK   39  A    between atoms: _92  and  _94
REMARK   40  A    between atoms: _94  and  _95
REMARK   41  A    between atoms: _94  and  _97
REMARK   42  A    between atoms: _100  and  _102
REMARK   43  A    between atoms: _102  and  _103
REMARK   44  A    between atoms: _102  and  _105
REMARK   45  A    between atoms: _105  and  _106
REMARK   46  A    between atoms: _106  and  _107
REMARK   47  A    between atoms: _109  and  _111
REMARK   48  A    between atoms: _111  and  _112
REMARK   49  A    between atoms: _111  and  _114
REMARK   50  A    between atoms: _114  and  _115
REMARK   51  A    between atoms: _118  and  _120
REMARK   52  A    between atoms: _120  and  _121
REMARK   53  A    between atoms: _123  and  _125
REMARK   54  A    between atoms: _125  and  _126
REMARK   55  A    between atoms: _128  and  _130
REMARK   56  A    between atoms: _130  and  _131
REMARK   57  A    between atoms: _130  and  _133
REMARK   58  A    between atoms: _133  and  _134
REMARK   59  A    between atoms: _137  and  _139
REMARK   60  A    between atoms: _139  and  _140
REMARK   61  A    between atoms: _142  and  _144
REMARK   62  A    between atoms: _144  and  _145
REMARK   63  A    between atoms: _147  and  _149
REMARK   64  A    between atoms: _149  and  _150
REMARK   65  A    between atoms: _149  and  _152
REMARK   66  A    between atoms: _152  and  _153
REMARK   67  A    between atoms: _159  and  _161
REMARK   68  A    between atoms: _161  and  _162
REMARK   69  A    between atoms: _161  and  _164
REMARK   70  A    between atoms: _164  and  _165
REMARK   71  A    between atoms: _168  and  _170
REMARK   72  A    between atoms: _170  and  _171
REMARK   73  A    between atoms: _170  and  _173
REMARK   74  A    between atoms: _176  and  _178
REMARK   75  A    between atoms: _178  and  _179
REMARK   76  A    between atoms: _178  and  _181
REMARK   77  A    between atoms: _181  and  _182
REMARK   78  A    between atoms: _186  and  _187
REMARK   79  A    between atoms: _192  and  _194
REMARK   80  A    between atoms: _194  and  _195
REMARK   81  A    between atoms: _194  and  _197
REMARK   82  A    between atoms: _197  and  _198
REMARK   83  A    between atoms: _202  and  _203
REMARK   84  A    between atoms: _208  and  _210
REMARK   85  A    between atoms: _210  and  _211
REMARK   86  A    between atoms: _210  and  _213
REMARK   87  A    between atoms: _216  and  _218
REMARK   88  A    between atoms: _218  and  _219
REMARK   89  A    between atoms: _218  and  _221
REMARK   90  A    between atoms: _221  and  _222
REMARK   91  A    between atoms: _227  and  _229
REMARK   92  A    between atoms: _229  and  _230
REMARK   93  A    between atoms: _229  and  _232
REMARK   94  A    between atoms: _232  and  _233
REMARK   95  A    between atoms: _236  and  _238
REMARK   96  A    between atoms: _238  and  _239
REMARK   97  A    between atoms: _238  and  _241
REMARK   98  A    between atoms: _241  and  _242
REMARK   99  A    between atoms: _245  and  _247
REMARK  100  A    between atoms: _247  and  _248
REMARK  101  A    between atoms: _250  and  _252
REMARK  102  A    between atoms: _252  and  _253
REMARK  103  A    between atoms: _252  and  _255
REMARK  104  A    between atoms: _255  and  _256
REMARK  105  A    between atoms: _256  and  _257
REMARK  106  A    between atoms: _257  and  _258
REMARK  107  A    between atoms: _267  and  _269
REMARK  108  A    between atoms: _269  and  _270
REMARK  109  A    between atoms: _269  and  _272
REMARK  110  A    between atoms: _272  and  _273
REMARK  111  A    between atoms: _278  and  _280
REMARK  112  A    between atoms: _280  and  _281
REMARK  113  A    between atoms: _280  and  _283
REMARK  114  A    between atoms: _283  and  _284
REMARK  115  A    between atoms: _284  and  _285
REMARK  116  A    between atoms: _285  and  _286
REMARK  117  A    between atoms: _295  and  _297
REMARK  118  A    between atoms: _297  and  _298
REMARK  119  A    between atoms: _297  and  _300
REMARK  120  A    between atoms: _300  and  _301
REMARK  121  A    between atoms: _304  and  _306
REMARK  122  A    between atoms: _306  and  _307
REMARK  123  A    between atoms: _306  and  _309
REMARK  124  A    between atoms: _309  and  _310
REMARK  125  A    between atoms: _313  and  _315
REMARK  126  A    between atoms: _315  and  _316
REMARK  127  A    between atoms: _315  and  _318
REMARK  128  A    between atoms: _318  and  _319
REMARK  129  A    between atoms: _322  and  _324
REMARK  130  A    between atoms: _324  and  _325
REMARK  131  A    between atoms: _324  and  _327
REMARK  132  A    between atoms: _327  and  _328
REMARK  133  A    between atoms: _331  and  _333
REMARK  134  A    between atoms: _333  and  _334
REMARK  135  A    between atoms: _336  and  _338
REMARK  136  A    between atoms: _338  and  _339
REMARK  137  A    between atoms: _342  and  _344
REMARK  138  A    between atoms: _344  and  _345
REMARK  139  A    between atoms: _344  and  _347
REMARK  140  A    between atoms: _347  and  _348
REMARK  141  A    between atoms: _351  and  _353
REMARK  142  A    between atoms: _353  and  _354
REMARK  143  A    between atoms: _353  and  _356
REMARK  144  A    between atoms: _356  and  _357
REMARK  145  A    between atoms: _360  and  _362
REMARK  146  A    between atoms: _362  and  _363
REMARK  147  A    between atoms: _362  and  _365
REMARK  148  A    between atoms: _365  and  _366
REMARK  149  A    between atoms: _369  and  _371
REMARK  150  A    between atoms: _371  and  _372
REMARK  151  A    between atoms: _371  and  _374
REMARK  152  A    between atoms: _377  and  _379
REMARK  153  A    between atoms: _379  and  _380
REMARK  154  A    between atoms: _379  and  _382
REMARK  155  A    between atoms: _383  and  _384
REMARK  156  A    between atoms: _384  and  _385
REMARK  157  A    between atoms: _385  and  _386
REMARK  158  A    between atoms: _390  and  _392
REMARK  159  A    between atoms: _392  and  _393
REMARK  160  A    between atoms: _392  and  _395
REMARK  161  A    between atoms: _395  and  _396
REMARK  162  A    between atoms: _396  and  _397
REMARK  163  A    between atoms: _399  and  _401
REMARK  164  A    between atoms: _401  and  _402
REMARK  165  A    between atoms: _401  and  _404
REMARK  166  A    between atoms: _404  and  _405
REMARK  167  A    between atoms: _408  and  _410
REMARK  168  A    between atoms: _410  and  _411
REMARK  169  A    between atoms: _413  and  _415
REMARK  170  A    between atoms: _415  and  _416
REMARK  171  A    between atoms: _418  and  _420
REMARK  172  A    between atoms: _420  and  _421
REMARK  173  A    between atoms: _420  and  _423
REMARK  174  A    between atoms: _423  and  _424
REMARK  175  A    between atoms: _427  and  _429
REMARK  176  A    between atoms: _429  and  _430
REMARK  177  A    between atoms: _432  and  _434
REMARK  178  A    between atoms: _434  and  _435
REMARK  179  A    between atoms: _437  and  _439
REMARK  180  A    between atoms: _439  and  _440
REMARK  181  A    between atoms: _439  and  _442
REMARK  182  A    between atoms: _442  and  _443
REMARK  183  A    between atoms: _449  and  _451
REMARK  184  A    between atoms: _451  and  _452
REMARK  185  A    between atoms: _451  and  _454
REMARK  186  A    between atoms: _454  and  _455
REMARK  187  A    between atoms: _458  and  _460
REMARK  188  A    between atoms: _460  and  _461
REMARK  189  A    between atoms: _460  and  _463
REMARK  190  A    between atoms: _466  and  _468
REMARK  191  A    between atoms: _468  and  _469
REMARK  192  A    between atoms: _468  and  _471
REMARK  193  A    between atoms: _471  and  _472
REMARK  194  A    between atoms: _475  and  _477
REMARK  195  A    between atoms: _477  and  _478
REMARK  196  A    between atoms: _477  and  _480
REMARK  197  A    between atoms: _480  and  _481
REMARK  198  A    between atoms: _485  and  _486
REMARK  199  A    between atoms: _491  and  _493
REMARK  200  A    between atoms: _493  and  _494
REMARK  201  A    between atoms: _493  and  _496
REMARK  202  A    between atoms: _499  and  _501
REMARK  203  A    between atoms: _501  and  _502
REMARK  204  A    between atoms: _501  and  _504
REMARK  205  A    between atoms: _504  and  _505
REMARK  206  A    between atoms: _510  and  _512
REMARK  207  A    between atoms: _512  and  _513
REMARK  208  A    between atoms: _512  and  _515
REMARK  209  A    between atoms: _515  and  _516
REMARK  210  A    between atoms: _519  and  _521
REMARK  211  A    between atoms: _521  and  _522
REMARK  212  A    between atoms: _521  and  _524
REMARK  213  A    between atoms: _524  and  _525
REMARK  214  A    between atoms: _528  and  _530
REMARK  215  A    between atoms: _530  and  _531
REMARK  216  A    between atoms: _533  and  _535
REMARK  217  A    between atoms: _535  and  _536
REMARK  218  A    between atoms: _535  and  _538
REMARK  219  A    between atoms: _538  and  _539
REMARK  220  A    between atoms: _539  and  _540
REMARK  221  A    between atoms: _540  and  _541
REMARK  222  A    between atoms: _550  and  _552
REMARK  223  A    between atoms: _552  and  _553
REMARK  224  A    between atoms: _552  and  _555
REMARK  225  A    between atoms: _555  and  _556
REMARK                            x       y       z     vdW  Elec       q    Type
REMARK                         _______ _______ _______ _____ _____    ______ ____
ROOT
ATOM      1  O   HOH     1       8.691  33.441  12.881  0.00  0.00    +0.000 OA
ENDROOT
TORSDOF 0
REMARK  Name = ../refined-set-2016/1izh/1izh_pocket.pdb
REMARK  225 active torsions:
REMARK  status: ('A' for Active; 'I' for Inactive)
REMARK    1  A    between atoms: _1  and  _3
REMARK    2  A    between atoms: _3  and  _4
REMARK    3  A    between atoms: _3  and  _6
REMARK    4  A    between atoms: _6  and  _7
REMARK    5  A    between atoms: _7  and  _8
REMARK    6  A    between atoms: _8  and  _9
REMARK    7  A    between atoms: _18  and  _20
REMARK    8  A    between atoms: _20  and  _21
REMARK    9  A    between atoms: _20  and  _23
REMARK   10  A    between atoms: _23  and  _24
REMARK   11  A    between atoms: _27  and  _29
REMARK   12  A    between atoms: _29  and  _30
REMARK   13  A    between atoms: _29  and  _32
REMARK   14  A    between atoms: _32  and  _33
REMARK   15  A    between atoms: _36  and  _38
REMARK   16  A    between atoms: _38  and  _39
REMARK   17  A    between atoms: _38  and  _41
REMARK   18  A    between atoms: _41  and  _42
REMARK   19  A    between atoms: _45  and  _47
REMARK   20  A    between atoms: _47  and  _48
REMARK   21  A    between atoms: _47  and  _50
REMARK   22  A    between atoms: _50  and  _51
REMARK   23  A    between atoms: _54  and  _56
REMARK   24  A    between atoms: _56  and  _57
REMARK   25  A    between atoms: _59  and  _61
REMARK   26  A    between atoms: _61  and  _62
REMARK   27  A    between atoms: _65  and  _67
REMARK   28  A    between atoms: _67  and  _68
REMARK   29  A    between atoms: _67  and  _70
REMARK   30  A    between atoms: _70  and  _71
REMARK   31  A    between atoms: _74  and  _76
REMARK   32  A    between atoms: _76  and  _77
REMARK   33  A    between atoms: _76  and  _79
REMARK   34  A    between atoms: _79  and  _80
REMARK   35  A    between atoms: _83  and  _85
REMARK   36  A    between atoms: _85  and  _86
REMARK   37  A    between atoms: _85  and  _88
REMARK   38  A    between atoms: _88  and  _89
REMARK   39  A    between atoms: _92  and  _94
REMARK   40  A    between atoms: _94  and  _95
REMARK   41  A    between atoms: _94  and  _97
REMARK   42  A    between atoms: _100  and  _102
REMARK   43  A    between atoms: _102  and  _103
REMARK   44  A    between atoms: _102  and  _105
REMARK   45  A    between atoms: _105  and  _106
REMARK   46  A    between atoms: _106  and  _107
REMARK   47  A    between atoms: _109  and  _111
REMARK   48  A    between atoms: _111  and  _112
REMARK   49  A    between atoms: _111  and  _114
REMARK   50  A    between atoms: _114  and  _115
REMARK   51  A    between atoms: _118  and  _120
REMARK   52  A    between atoms: _120  and  _121
REMARK   53  A    between atoms: _123  and  _125
REMARK   54  A    between atoms: _125  and  _126
REMARK   55  A    between atoms: _128  and  _130
REMARK   56  A    between atoms: _130  and  _131
REMARK   57  A    between atoms: _130  and  _133
REMARK   58  A    between atoms: _133  and  _134
REMARK   59  A    between atoms: _137  and  _139
REMARK   60  A    between atoms: _139  and  _140
REMARK   61  A    between atoms: _142  and  _144
REMARK   62  A    between atoms: _144  and  _145
REMARK   63  A    between atoms: _147  and  _149
REMARK   64  A    between atoms: _149  and  _150
REMARK   65  A    between atoms: _149  and  _152
REMARK   66  A    between atoms: _152  and  _153
REMARK   67  A    between atoms: _159  and  _161
REMARK   68  A    between atoms: _161  and  _162
REMARK   69  A    between atoms: _161  and  _164
REMARK   70  A    between atoms: _164  and  _165
REMARK   71  A    between atoms: _168  and  _170
REMARK   72  A    between atoms: _170  and  _171
REMARK   73  A    between atoms: _170  and  _173
REMARK   74  A    between atoms: _176  and  _178
REMARK   75  A    between atoms: _178  and  _179
REMARK   76  A    between atoms: _178  and  _181
REMARK   77  A    between atoms: _181  and  _182
REMARK   78  A    between atoms: _186  and  _187
REMARK   79  A    between atoms: _192  and  _194
REMARK   80  A    between atoms: _194  and  _195
REMARK   81  A    between atoms: _194  and  _197
REMARK   82  A    between atoms: _197  and  _198
REMARK   83  A    between atoms: _202  and  _203
REMARK   84  A    between atoms: _208  and  _210
REMARK   85  A    between atoms: _210  and  _211
REMARK   86  A    between atoms: _210  and  _213
REMARK   87  A    between atoms: _216  and  _218
REMARK   88  A    between atoms: _218  and  _219
REMARK   89  A    between atoms: _218  and  _221
REMARK   90  A    between atoms: _221  and  _222
REMARK   91  A    between atoms: _227  and  _229
REMARK   92  A    between atoms: _229  and  _230
REMARK   93  A    between atoms: _229  and  _232
REMARK   94  A    between atoms: _232  and  _233
REMARK   95  A    between atoms: _236  and  _238
REMARK   96  A    between atoms: _238  and  _239
REMARK   97  A    between atoms: _238  and  _241
REMARK   98  A    between atoms: _241  and  _242
REMARK   99  A    between atoms: _245  and  _247
REMARK  100  A    between atoms: _247  and  _248
REMARK  101  A    between atoms: _250  and  _252
REMARK  102  A    between atoms: _252  and  _253
REMARK  103  A    between atoms: _252  and  _255
REMARK  104  A    between atoms: _255  and  _256
REMARK  105  A    between atoms: _256  and  _257
REMARK  106  A    between atoms: _257  and  _258
REMARK  107  A    between atoms: _267  and  _269
REMARK  108  A    between atoms: _269  and  _270
REMARK  109  A    between atoms: _269  and  _272
REMARK  110  A    between atoms: _272  and  _273
REMARK  111  A    between atoms: _278  and  _280
REMARK  112  A    between atoms: _280  and  _281
REMARK  113  A    between atoms: _280  and  _283
REMARK  114  A    between atoms: _283  and  _284
REMARK  115  A    between atoms: _284  and  _285
REMARK  116  A    between atoms: _285  and  _286
REMARK  117  A    between atoms: _295  and  _297
REMARK  118  A    between atoms: _297  and  _298
REMARK  119  A    between atoms: _297  and  _300
REMARK  120  A    between atoms: _300  and  _301
REMARK  121  A    between atoms: _304  and  _306
REMARK  122  A    between atoms: _306  and  _307
REMARK  123  A    between atoms: _306  and  _309
REMARK  124  A    between atoms: _309  and  _310
REMARK  125  A    between atoms: _313  and  _315
REMARK  126  A    between atoms: _315  and  _316
REMARK  127  A    between atoms: _315  and  _318
REMARK  128  A    between atoms: _318  and  _319
REMARK  129  A    between atoms: _322  and  _324
REMARK  130  A    between atoms: _324  and  _325
REMARK  131  A    between atoms: _324  and  _327
REMARK  132  A    between atoms: _327  and  _328
REMARK  133  A    between atoms: _331  and  _333
REMARK  134  A    between atoms: _333  and  _334
REMARK  135  A    between atoms: _336  and  _338
REMARK  136  A    between atoms: _338  and  _339
REMARK  137  A    between atoms: _342  and  _344
REMARK  138  A    between atoms: _344  and  _345
REMARK  139  A    between atoms: _344  and  _347
REMARK  140  A    between atoms: _347  and  _348
REMARK  141  A    between atoms: _351  and  _353
REMARK  142  A    between atoms: _353  and  _354
REMARK  143  A    between atoms: _353  and  _356
REMARK  144  A    between atoms: _356  and  _357
REMARK  145  A    between atoms: _360  and  _362
REMARK  146  A    between atoms: _362  and  _363
REMARK  147  A    between atoms: _362  and  _365
REMARK  148  A    between atoms: _365  and  _366
REMARK  149  A    between atoms: _369  and  _371
REMARK  150  A    between atoms: _371  and  _372
REMARK  151  A    between atoms: _371  and  _374
REMARK  152  A    between atoms: _377  and  _379
REMARK  153  A    between atoms: _379  and  _380
REMARK  154  A    between atoms: _379  and  _382
REMARK  155  A    between atoms: _383  and  _384
REMARK  156  A    between atoms: _384  and  _385
REMARK  157  A    between atoms: _385  and  _386
REMARK  158  A    between atoms: _390  and  _392
REMARK  159  A    between atoms: _392  and  _393
REMARK  160  A    between atoms: _392  and  _395
REMARK  161  A    between atoms: _395  and  _396
REMARK  162  A    between atoms: _396  and  _397
REMARK  163  A    between atoms: _399  and  _401
REMARK  164  A    between atoms: _401  and  _402
REMARK  165  A    between atoms: _401  and  _404
REMARK  166  A    between atoms: _404  and  _405
REMARK  167  A    between atoms: _408  and  _410
REMARK  168  A    between atoms: _410  and  _411
REMARK  169  A    between atoms: _413  and  _415
REMARK  170  A    between atoms: _415  and  _416
REMARK  171  A    between atoms: _418  and  _420
REMARK  172  A    between atoms: _420  and  _421
REMARK  173  A    between atoms: _420  and  _423
REMARK  174  A    between atoms: _423  and  _424
REMARK  175  A    between atoms: _427  and  _429
REMARK  176  A    between atoms: _429  and  _430
REMARK  177  A    between atoms: _432  and  _434
REMARK  178  A    between atoms: _434  and  _435
REMARK  179  A    between atoms: _437  and  _439
REMARK  180  A    between atoms: _439  and  _440
REMARK  181  A    between atoms: _439  and  _442
REMARK  182  A    between atoms: _442  and  _443
REMARK  183  A    between atoms: _449  and  _451
REMARK  184  A    between atoms: _451  and  _452
REMARK  185  A    between atoms: _451  and  _454
REMARK  186  A    between atoms: _454  and  _455
REMARK  187  A    between atoms: _458  and  _460
REMARK  188  A    between atoms: _460  and  _461
REMARK  189  A    between atoms: _460  and  _463
REMARK  190  A    between atoms: _466  and  _468
REMARK  191  A    between atoms: _468  and  _469
REMARK  192  A    between atoms: _468  and  _471
REMARK  193  A    between atoms: _471  and  _472
REMARK  194  A    between atoms: _475  and  _477
REMARK  195  A    between atoms: _477  and  _478
REMARK  196  A    between atoms: _477  and  _480
REMARK  197  A    between atoms: _480  and  _481
REMARK  198  A    between atoms: _485  and  _486
REMARK  199  A    between atoms: _491  and  _493
REMARK  200  A    between atoms: _493  and  _494
REMARK  201  A    between atoms: _493  and  _496
REMARK  202  A    between atoms: _499  and  _501
REMARK  203  A    between atoms: _501  and  _502
REMARK  204  A    between atoms: _501  and  _504
REMARK  205  A    between atoms: _504  and  _505
REMARK  206  A    between atoms: _510  and  _512
REMARK  207  A    between atoms: _512  and  _513
REMARK  208  A    between atoms: _512  and  _515
REMARK  209  A    between atoms: _515  and  _516
REMARK  210  A    between atoms: _519  and  _521
REMARK  211  A    between atoms: _521  and  _522
REMARK  212  A    between atoms: _521  and  _524
REMARK  213  A    between atoms: _524  and  _525
REMARK  214  A    between atoms: _528  and  _530
REMARK  215  A    between atoms: _530  and  _531
REMARK  216  A    between atoms: _533  and  _535
REMARK  217  A    between atoms: _535  and  _536
REMARK  218  A    between atoms: _535  and  _538
REMARK  219  A    between atoms: _538  and  _539
REMARK  220  A    between atoms: _539  and  _540
REMARK  221  A    between atoms: _540  and  _541
REMARK  222  A    between atoms: _550  and  _552
REMARK  223  A    between atoms: _552  and  _553
REMARK  224  A    between atoms: _552  and  _555
REMARK  225  A    between atoms: _555  and  _556
REMARK                            x       y       z     vdW  Elec       q    Type
REMARK                         _______ _______ _______ _____ _____    ______ ____
ROOT
ATOM      1  O   HOH     1       9.351  28.778   2.376  0.00  0.00    +0.000 OA
ENDROOT
TORSDOF 0
REMARK  Name = ../refined-set-2016/1izh/1izh_pocket.pdb
REMARK  225 active torsions:
REMARK  status: ('A' for Active; 'I' for Inactive)
REMARK    1  A    between atoms: _1  and  _3
REMARK    2  A    between atoms: _3  and  _4
REMARK    3  A    between atoms: _3  and  _6
REMARK    4  A    between atoms: _6  and  _7
REMARK    5  A    between atoms: _7  and  _8
REMARK    6  A    between atoms: _8  and  _9
REMARK    7  A    between atoms: _18  and  _20
REMARK    8  A    between atoms: _20  and  _21
REMARK    9  A    between atoms: _20  and  _23
REMARK   10  A    between atoms: _23  and  _24
REMARK   11  A    between atoms: _27  and  _29
REMARK   12  A    between atoms: _29  and  _30
REMARK   13  A    between atoms: _29  and  _32
REMARK   14  A    between atoms: _32  and  _33
REMARK   15  A    between atoms: _36  and  _38
REMARK   16  A    between atoms: _38  and  _39
REMARK   17  A    between atoms: _38  and  _41
REMARK   18  A    between atoms: _41  and  _42
REMARK   19  A    between atoms: _45  and  _47
REMARK   20  A    between atoms: _47  and  _48
REMARK   21  A    between atoms: _47  and  _50
REMARK   22  A    between atoms: _50  and  _51
REMARK   23  A    between atoms: _54  and  _56
REMARK   24  A    between atoms: _56  and  _57
REMARK   25  A    between atoms: _59  and  _61
REMARK   26  A    between atoms: _61  and  _62
REMARK   27  A    between atoms: _65  and  _67
REMARK   28  A    between atoms: _67  and  _68
REMARK   29  A    between atoms: _67  and  _70
REMARK   30  A    between atoms: _70  and  _71
REMARK   31  A    between atoms: _74  and  _76
REMARK   32  A    between atoms: _76  and  _77
REMARK   33  A    between atoms: _76  and  _79
REMARK   34  A    between atoms: _79  and  _80
REMARK   35  A    between atoms: _83  and  _85
REMARK   36  A    between atoms: _85  and  _86
REMARK   37  A    between atoms: _85  and  _88
REMARK   38  A    between atoms: _88  and  _89
REMARK   39  A    between atoms: _92  and  _94
REMARK   40  A    between atoms: _94  and  _95
REMARK   41  A    between atoms: _94  and  _97
REMARK   42  A    between atoms: _100  and  _102
REMARK   43  A    between atoms: _102  and  _103
REMARK   44  A    between atoms: _102  and  _105
REMARK   45  A    between atoms: _105  and  _106
REMARK   46  A    between atoms: _106  and  _107
REMARK   47  A    between atoms: _109  and  _111
REMARK   48  A    between atoms: _111  and  _112
REMARK   49  A    between atoms: _111  and  _114
REMARK   50  A    between atoms: _114  and  _115
REMARK   51  A    between atoms: _118  and  _120
REMARK   52  A    between atoms: _120  and  _121
REMARK   53  A    between atoms: _123  and  _125
REMARK   54  A    between atoms: _125  and  _126
REMARK   55  A    between atoms: _128  and  _130
REMARK   56  A    between atoms: _130  and  _131
REMARK   57  A    between atoms: _130  and  _133
REMARK   58  A    between atoms: _133  and  _134
REMARK   59  A    between atoms: _137  and  _139
REMARK   60  A    between atoms: _139  and  _140
REMARK   61  A    between atoms: _142  and  _144
REMARK   62  A    between atoms: _144  and  _145
REMARK   63  A    between atoms: _147  and  _149
REMARK   64  A    between atoms: _149  and  _150
REMARK   65  A    between atoms: _149  and  _152
REMARK   66  A    between atoms: _152  and  _153
REMARK   67  A    between atoms: _159  and  _161
REMARK   68  A    between atoms: _161  and  _162
REMARK   69  A    between atoms: _161  and  _164
REMARK   70  A    between atoms: _164  and  _165
REMARK   71  A    between atoms: _168  and  _170
REMARK   72  A    between atoms: _170  and  _171
REMARK   73  A    between atoms: _170  and  _173
REMARK   74  A    between atoms: _176  and  _178
REMARK   75  A    between atoms: _178  and  _179
REMARK   76  A    between atoms: _178  and  _181
REMARK   77  A    between atoms: _181  and  _182
REMARK   78  A    between atoms: _186  and  _187
REMARK   79  A    between atoms: _192  and  _194
REMARK   80  A    between atoms: _194  and  _195
REMARK   81  A    between atoms: _194  and  _197
REMARK   82  A    between atoms: _197  and  _198
REMARK   83  A    between atoms: _202  and  _203
REMARK   84  A    between atoms: _208  and  _210
REMARK   85  A    between atoms: _210  and  _211
REMARK   86  A    between atoms: _210  and  _213
REMARK   87  A    between atoms: _216  and  _218
REMARK   88  A    between atoms: _218  and  _219
REMARK   89  A    between atoms: _218  and  _221
REMARK   90  A    between atoms: _221  and  _222
REMARK   91  A    between atoms: _227  and  _229
REMARK   92  A    between atoms: _229  and  _230
REMARK   93  A    between atoms: _229  and  _232
REMARK   94  A    between atoms: _232  and  _233
REMARK   95  A    between atoms: _236  and  _238
REMARK   96  A    between atoms: _238  and  _239
REMARK   97  A    between atoms: _238  and  _241
REMARK   98  A    between atoms: _241  and  _242
REMARK   99  A    between atoms: _245  and  _247
REMARK  100  A    between atoms: _247  and  _248
REMARK  101  A    between atoms: _250  and  _252
REMARK  102  A    between atoms: _252  and  _253
REMARK  103  A    between atoms: _252  and  _255
REMARK  104  A    between atoms: _255  and  _256
REMARK  105  A    between atoms: _256  and  _257
REMARK  106  A    between atoms: _257  and  _258
REMARK  107  A    between atoms: _267  and  _269
REMARK  108  A    between atoms: _269  and  _270
REMARK  109  A    between atoms: _269  and  _272
REMARK  110  A    between atoms: _272  and  _273
REMARK  111  A    between atoms: _278  and  _280
REMARK  112  A    between atoms: _280  and  _281
REMARK  113  A    between atoms: _280  and  _283
REMARK  114  A    between atoms: _283  and  _284
REMARK  115  A    between atoms: _284  and  _285
REMARK  116  A    between atoms: _285  and  _286
REMARK  117  A    between atoms: _295  and  _297
REMARK  118  A    between atoms: _297  and  _298
REMARK  119  A    between atoms: _297  and  _300
REMARK  120  A    between atoms: _300  and  _301
REMARK  121  A    between atoms: _304  and  _306
REMARK  122  A    between atoms: _306  and  _307
REMARK  123  A    between atoms: _306  and  _309
REMARK  124  A    between atoms: _309  and  _310
REMARK  125  A    between atoms: _313  and  _315
REMARK  126  A    between atoms: _315  and  _316
REMARK  127  A    between atoms: _315  and  _318
REMARK  128  A    between atoms: _318  and  _319
REMARK  129  A    between atoms: _322  and  _324
REMARK  130  A    between atoms: _324  and  _325
REMARK  131  A    between atoms: _324  and  _327
REMARK  132  A    between atoms: _327  and  _328
REMARK  133  A    between atoms: _331  and  _333
REMARK  134  A    between atoms: _333  and  _334
REMARK  135  A    between atoms: _336  and  _338
REMARK  136  A    between atoms: _338  and  _339
REMARK  137  A    between atoms: _342  and  _344
REMARK  138  A    between atoms: _344  and  _345
REMARK  139  A    between atoms: _344  and  _347
REMARK  140  A    between atoms: _347  and  _348
REMARK  141  A    between atoms: _351  and  _353
REMARK  142  A    between atoms: _353  and  _354
REMARK  143  A    between atoms: _353  and  _356
REMARK  144  A    between atoms: _356  and  _357
REMARK  145  A    between atoms: _360  and  _362
REMARK  146  A    between atoms: _362  and  _363
REMARK  147  A    between atoms: _362  and  _365
REMARK  148  A    between atoms: _365  and  _366
REMARK  149  A    between atoms: _369  and  _371
REMARK  150  A    between atoms: _371  and  _372
REMARK  151  A    between atoms: _371  and  _374
REMARK  152  A    between atoms: _377  and  _379
REMARK  153  A    between atoms: _379  and  _380
REMARK  154  A    between atoms: _379  and  _382
REMARK  155  A    between atoms: _383  and  _384
REMARK  156  A    between atoms: _384  and  _385
REMARK  157  A    between atoms: _385  and  _386
REMARK  158  A    between atoms: _390  and  _392
REMARK  159  A    between atoms: _392  and  _393
REMARK  160  A    between atoms: _392  and  _395
REMARK  161  A    between atoms: _395  and  _396
REMARK  162  A    between atoms: _396  and  _397
REMARK  163  A    between atoms: _399  and  _401
REMARK  164  A    between atoms: _401  and  _402
REMARK  165  A    between atoms: _401  and  _404
REMARK  166  A    between atoms: _404  and  _405
REMARK  167  A    between atoms: _408  and  _410
REMARK  168  A    between atoms: _410  and  _411
REMARK  169  A    between atoms: _413  and  _415
REMARK  170  A    between atoms: _415  and  _416
REMARK  171  A    between atoms: _418  and  _420
REMARK  172  A    between atoms: _420  and  _421
REMARK  173  A    between atoms: _420  and  _423
REMARK  174  A    between atoms: _423  and  _424
REMARK  175  A    between atoms: _427  and  _429
REMARK  176  A    between atoms: _429  and  _430
REMARK  177  A    between atoms: _432  and  _434
REMARK  178  A    between atoms: _434  and  _435
REMARK  179  A    between atoms: _437  and  _439
REMARK  180  A    between atoms: _439  and  _440
REMARK  181  A    between atoms: _439  and  _442
REMARK  182  A    between atoms: _442  and  _443
REMARK  183  A    between atoms: _449  and  _451
REMARK  184  A    between atoms: _451  and  _452
REMARK  185  A    between atoms: _451  and  _454
REMARK  186  A    between atoms: _454  and  _455
REMARK  187  A    between atoms: _458  and  _460
REMARK  188  A    between atoms: _460  and  _461
REMARK  189  A    between atoms: _460  and  _463
REMARK  190  A    between atoms: _466  and  _468
REMARK  191  A    between atoms: _468  and  _469
REMARK  192  A    between atoms: _468  and  _471
REMARK  193  A    between atoms: _471  and  _472
REMARK  194  A    between atoms: _475  and  _477
REMARK  195  A    between atoms: _477  and  _478
REMARK  196  A    between atoms: _477  and  _480
REMARK  197  A    between atoms: _480  and  _481
REMARK  198  A    between atoms: _485  and  _486
REMARK  199  A    between atoms: _491  and  _493
REMARK  200  A    between atoms: _493  and  _494
REMARK  201  A    between atoms: _493  and  _496
REMARK  202  A    between atoms: _499  and  _501
REMARK  203  A    between atoms: _501  and  _502
REMARK  204  A    between atoms: _501  and  _504
REMARK  205  A    between atoms: _504  and  _505
REMARK  206  A    between atoms: _510  and  _512
REMARK  207  A    between atoms: _512  and  _513
REMARK  208  A    between atoms: _512  and  _515
REMARK  209  A    between atoms: _515  and  _516
REMARK  210  A    between atoms: _519  and  _521
REMARK  211  A    between atoms: _521  and  _522
REMARK  212  A    between atoms: _521  and  _524
REMARK  213  A    between atoms: _524  and  _525
REMARK  214  A    between atoms: _528  and  _530
REMARK  215  A    between atoms: _530  and  _531
REMARK  216  A    between atoms: _533  and  _535
REMARK  217  A    between atoms: _535  and  _536
REMARK  218  A    between atoms: _535  and  _538
REMARK  219  A    between atoms: _538  and  _539
REMARK  220  A    between atoms: _539  and  _540
REMARK  221  A    between atoms: _540  and  _541
REMARK  222  A    between atoms: _550  and  _552
REMARK  223  A    between atoms: _552  and  _553
REMARK  224  A    between atoms: _552  and  _555
REMARK  225  A    between atoms: _555  and  _556
REMARK                            x       y       z     vdW  Elec       q    Type
REMARK                         _______ _______ _______ _____ _____    ______ ____
ROOT
ATOM      1  O   HOH     1       6.810  15.552   3.652  0.00  0.00    +0.000 OA
ENDROOT
TORSDOF 0
REMARK  Name = ../refined-set-2016/1izh/1izh_pocket.pdb
REMARK  225 active torsions:
REMARK  status: ('A' for Active; 'I' for Inactive)
REMARK    1  A    between atoms: _1  and  _3
REMARK    2  A    between atoms: _3  and  _4
REMARK    3  A    between atoms: _3  and  _6
REMARK    4  A    between atoms: _6  and  _7
REMARK    5  A    between atoms: _7  and  _8
REMARK    6  A    between atoms: _8  and  _9
REMARK    7  A    between atoms: _18  and  _20
REMARK    8  A    between atoms: _20  and  _21
REMARK    9  A    between atoms: _20  and  _23
REMARK   10  A    between atoms: _23  and  _24
REMARK   11  A    between atoms: _27  and  _29
REMARK   12  A    between atoms: _29  and  _30
REMARK   13  A    between atoms: _29  and  _32
REMARK   14  A    between atoms: _32  and  _33
REMARK   15  A    between atoms: _36  and  _38
REMARK   16  A    between atoms: _38  and  _39
REMARK   17  A    between atoms: _38  and  _41
REMARK   18  A    between atoms: _41  and  _42
REMARK   19  A    between atoms: _45  and  _47
REMARK   20  A    between atoms: _47  and  _48
REMARK   21  A    between atoms: _47  and  _50
REMARK   22  A    between atoms: _50  and  _51
REMARK   23  A    between atoms: _54  and  _56
REMARK   24  A    between atoms: _56  and  _57
REMARK   25  A    between atoms: _59  and  _61
REMARK   26  A    between atoms: _61  and  _62
REMARK   27  A    between atoms: _65  and  _67
REMARK   28  A    between atoms: _67  and  _68
REMARK   29  A    between atoms: _67  and  _70
REMARK   30  A    between atoms: _70  and  _71
REMARK   31  A    between atoms: _74  and  _76
REMARK   32  A    between atoms: _76  and  _77
REMARK   33  A    between atoms: _76  and  _79
REMARK   34  A    between atoms: _79  and  _80
REMARK   35  A    between atoms: _83  and  _85
REMARK   36  A    between atoms: _85  and  _86
REMARK   37  A    between atoms: _85  and  _88
REMARK   38  A    between atoms: _88  and  _89
REMARK   39  A    between atoms: _92  and  _94
REMARK   40  A    between atoms: _94  and  _95
REMARK   41  A    between atoms: _94  and  _97
REMARK   42  A    between atoms: _100  and  _102
REMARK   43  A    between atoms: _102  and  _103
REMARK   44  A    between atoms: _102  and  _105
REMARK   45  A    between atoms: _105  and  _106
REMARK   46  A    between atoms: _106  and  _107
REMARK   47  A    between atoms: _109  and  _111
REMARK   48  A    between atoms: _111  and  _112
REMARK   49  A    between atoms: _111  and  _114
REMARK   50  A    between atoms: _114  and  _115
REMARK   51  A    between atoms: _118  and  _120
REMARK   52  A    between atoms: _120  and  _121
REMARK   53  A    between atoms: _123  and  _125
REMARK   54  A    between atoms: _125  and  _126
REMARK   55  A    between atoms: _128  and  _130
REMARK   56  A    between atoms: _130  and  _131
REMARK   57  A    between atoms: _130  and  _133
REMARK   58  A    between atoms: _133  and  _134
REMARK   59  A    between atoms: _137  and  _139
REMARK   60  A    between atoms: _139  and  _140
REMARK   61  A    between atoms: _142  and  _144
REMARK   62  A    between atoms: _144  and  _145
REMARK   63  A    between atoms: _147  and  _149
REMARK   64  A    between atoms: _149  and  _150
REMARK   65  A    between atoms: _149  and  _152
REMARK   66  A    between atoms: _152  and  _153
REMARK   67  A    between atoms: _159  and  _161
REMARK   68  A    between atoms: _161  and  _162
REMARK   69  A    between atoms: _161  and  _164
REMARK   70  A    between atoms: _164  and  _165
REMARK   71  A    between atoms: _168  and  _170
REMARK   72  A    between atoms: _170  and  _171
REMARK   73  A    between atoms: _170  and  _173
REMARK   74  A    between atoms: _176  and  _178
REMARK   75  A    between atoms: _178  and  _179
REMARK   76  A    between atoms: _178  and  _181
REMARK   77  A    between atoms: _181  and  _182
REMARK   78  A    between atoms: _186  and  _187
REMARK   79  A    between atoms: _192  and  _194
REMARK   80  A    between atoms: _194  and  _195
REMARK   81  A    between atoms: _194  and  _197
REMARK   82  A    between atoms: _197  and  _198
REMARK   83  A    between atoms: _202  and  _203
REMARK   84  A    between atoms: _208  and  _210
REMARK   85  A    between atoms: _210  and  _211
REMARK   86  A    between atoms: _210  and  _213
REMARK   87  A    between atoms: _216  and  _218
REMARK   88  A    between atoms: _218  and  _219
REMARK   89  A    between atoms: _218  and  _221
REMARK   90  A    between atoms: _221  and  _222
REMARK   91  A    between atoms: _227  and  _229
REMARK   92  A    between atoms: _229  and  _230
REMARK   93  A    between atoms: _229  and  _232
REMARK   94  A    between atoms: _232  and  _233
REMARK   95  A    between atoms: _236  and  _238
REMARK   96  A    between atoms: _238  and  _239
REMARK   97  A    between atoms: _238  and  _241
REMARK   98  A    between atoms: _241  and  _242
REMARK   99  A    between atoms: _245  and  _247
REMARK  100  A    between atoms: _247  and  _248
REMARK  101  A    between atoms: _250  and  _252
REMARK  102  A    between atoms: _252  and  _253
REMARK  103  A    between atoms: _252  and  _255
REMARK  104  A    between atoms: _255  and  _256
REMARK  105  A    between atoms: _256  and  _257
REMARK  106  A    between atoms: _257  and  _258
REMARK  107  A    between atoms: _267  and  _269
REMARK  108  A    between atoms: _269  and  _270
REMARK  109  A    between atoms: _269  and  _272
REMARK  110  A    between atoms: _272  and  _273
REMARK  111  A    between atoms: _278  and  _280
REMARK  112  A    between atoms: _280  and  _281
REMARK  113  A    between atoms: _280  and  _283
REMARK  114  A    between atoms: _283  and  _284
REMARK  115  A    between atoms: _284  and  _285
REMARK  116  A    between atoms: _285  and  _286
REMARK  117  A    between atoms: _295  and  _297
REMARK  118  A    between atoms: _297  and  _298
REMARK  119  A    between atoms: _297  and  _300
REMARK  120  A    between atoms: _300  and  _301
REMARK  121  A    between atoms: _304  and  _306
REMARK  122  A    between atoms: _306  and  _307
REMARK  123  A    between atoms: _306  and  _309
REMARK  124  A    between atoms: _309  and  _310
REMARK  125  A    between atoms: _313  and  _315
REMARK  126  A    between atoms: _315  and  _316
REMARK  127  A    between atoms: _315  and  _318
REMARK  128  A    between atoms: _318  and  _319
REMARK  129  A    between atoms: _322  and  _324
REMARK  130  A    between atoms: _324  and  _325
REMARK  131  A    between atoms: _324  and  _327
REMARK  132  A    between atoms: _327  and  _328
REMARK  133  A    between atoms: _331  and  _333
REMARK  134  A    between atoms: _333  and  _334
REMARK  135  A    between atoms: _336  and  _338
REMARK  136  A    between atoms: _338  and  _339
REMARK  137  A    between atoms: _342  and  _344
REMARK  138  A    between atoms: _344  and  _345
REMARK  139  A    between atoms: _344  and  _347
REMARK  140  A    between atoms: _347  and  _348
REMARK  141  A    between atoms: _351  and  _353
REMARK  142  A    between atoms: _353  and  _354
REMARK  143  A    between atoms: _353  and  _356
REMARK  144  A    between atoms: _356  and  _357
REMARK  145  A    between atoms: _360  and  _362
REMARK  146  A    between atoms: _362  and  _363
REMARK  147  A    between atoms: _362  and  _365
REMARK  148  A    between atoms: _365  and  _366
REMARK  149  A    between atoms: _369  and  _371
REMARK  150  A    between atoms: _371  and  _372
REMARK  151  A    between atoms: _371  and  _374
REMARK  152  A    between atoms: _377  and  _379
REMARK  153  A    between atoms: _379  and  _380
REMARK  154  A    between atoms: _379  and  _382
REMARK  155  A    between atoms: _383  and  _384
REMARK  156  A    between atoms: _384  and  _385
REMARK  157  A    between atoms: _385  and  _386
REMARK  158  A    between atoms: _390  and  _392
REMARK  159  A    between atoms: _392  and  _393
REMARK  160  A    between atoms: _392  and  _395
REMARK  161  A    between atoms: _395  and  _396
REMARK  162  A    between atoms: _396  and  _397
REMARK  163  A    between atoms: _399  and  _401
REMARK  164  A    between atoms: _401  and  _402
REMARK  165  A    between atoms: _401  and  _404
REMARK  166  A    between atoms: _404  and  _405
REMARK  167  A    between atoms: _408  and  _410
REMARK  168  A    between atoms: _410  and  _411
REMARK  169  A    between atoms: _413  and  _415
REMARK  170  A    between atoms: _415  and  _416
REMARK  171  A    between atoms: _418  and  _420
REMARK  172  A    between atoms: _420  and  _421
REMARK  173  A    between atoms: _420  and  _423
REMARK  174  A    between atoms: _423  and  _424
REMARK  175  A    between atoms: _427  and  _429
REMARK  176  A    between atoms: _429  and  _430
REMARK  177  A    between atoms: _432  and  _434
REMARK  178  A    between atoms: _434  and  _435
REMARK  179  A    between atoms: _437  and  _439
REMARK  180  A    between atoms: _439  and  _440
REMARK  181  A    between atoms: _439  and  _442
REMARK  182  A    between atoms: _442  and  _443
REMARK  183  A    between atoms: _449  and  _451
REMARK  184  A    between atoms: _451  and  _452
REMARK  185  A    between atoms: _451  and  _454
REMARK  186  A    between atoms: _454  and  _455
REMARK  187  A    between atoms: _458  and  _460
REMARK  188  A    between atoms: _460  and  _461
REMARK  189  A    between atoms: _460  and  _463
REMARK  190  A    between atoms: _466  and  _468
REMARK  191  A    between atoms: _468  and  _469
REMARK  192  A    between atoms: _468  and  _471
REMARK  193  A    between atoms: _471  and  _472
REMARK  194  A    between atoms: _475  and  _477
REMARK  195  A    between atoms: _477  and  _478
REMARK  196  A    between atoms: _477  and  _480
REMARK  197  A    between atoms: _480  and  _481
REMARK  198  A    between atoms: _485  and  _486
REMARK  199  A    between atoms: _491  and  _493
REMARK  200  A    between atoms: _493  and  _494
REMARK  201  A    between atoms: _493  and  _496
REMARK  202  A    between atoms: _499  and  _501
REMARK  203  A    between atoms: _501  and  _502
REMARK  204  A    between atoms: _501  and  _504
REMARK  205  A    between atoms: _504  and  _505
REMARK  206  A    between atoms: _510  and  _512
REMARK  207  A    between atoms: _512  and  _513
REMARK  208  A    between atoms: _512  and  _515
REMARK  209  A    between atoms: _515  and  _516
REMARK  210  A    between atoms: _519  and  _521
REMARK  211  A    between atoms: _521  and  _522
REMARK  212  A    between atoms: _521  and  _524
REMARK  213  A    between atoms: _524  and  _525
REMARK  214  A    between atoms: _528  and  _530
REMARK  215  A    between atoms: _530  and  _531
REMARK  216  A    between atoms: _533  and  _535
REMARK  217  A    between atoms: _535  and  _536
REMARK  218  A    between atoms: _535  and  _538
REMARK  219  A    between atoms: _538  and  _539
REMARK  220  A    between atoms: _539  and  _540
REMARK  221  A    between atoms: _540  and  _541
REMARK  222  A    between atoms: _550  and  _552
REMARK  223  A    between atoms: _552  and  _553
REMARK  224  A    between atoms: _552  and  _555
REMARK  225  A    between atoms: _555  and  _556
REMARK                            x       y       z     vdW  Elec       q    Type
REMARK                         _______ _______ _______ _____ _____    ______ ____
ROOT
ATOM      1  O   HOH     1       4.711  33.088   7.524  0.00  0.00    +0.000 OA
ENDROOT
TORSDOF 0
REMARK  Name = ../refined-set-2016/1izh/1izh_pocket.pdb
REMARK  225 active torsions:
REMARK  status: ('A' for Active; 'I' for Inactive)
REMARK    1  A    between atoms: _1  and  _3
REMARK    2  A    between atoms: _3  and  _4
REMARK    3  A    between atoms: _3  and  _6
REMARK    4  A    between atoms: _6  and  _7
REMARK    5  A    between atoms: _7  and  _8
REMARK    6  A    between atoms: _8  and  _9
REMARK    7  A    between atoms: _18  and  _20
REMARK    8  A    between atoms: _20  and  _21
REMARK    9  A    between atoms: _20  and  _23
REMARK   10  A    between atoms: _23  and  _24
REMARK   11  A    between atoms: _27  and  _29
REMARK   12  A    between atoms: _29  and  _30
REMARK   13  A    between atoms: _29  and  _32
REMARK   14  A    between atoms: _32  and  _33
REMARK   15  A    between atoms: _36  and  _38
REMARK   16  A    between atoms: _38  and  _39
REMARK   17  A    between atoms: _38  and  _41
REMARK   18  A    between atoms: _41  and  _42
REMARK   19  A    between atoms: _45  and  _47
REMARK   20  A    between atoms: _47  and  _48
REMARK   21  A    between atoms: _47  and  _50
REMARK   22  A    between atoms: _50  and  _51
REMARK   23  A    between atoms: _54  and  _56
REMARK   24  A    between atoms: _56  and  _57
REMARK   25  A    between atoms: _59  and  _61
REMARK   26  A    between atoms: _61  and  _62
REMARK   27  A    between atoms: _65  and  _67
REMARK   28  A    between atoms: _67  and  _68
REMARK   29  A    between atoms: _67  and  _70
REMARK   30  A    between atoms: _70  and  _71
REMARK   31  A    between atoms: _74  and  _76
REMARK   32  A    between atoms: _76  and  _77
REMARK   33  A    between atoms: _76  and  _79
REMARK   34  A    between atoms: _79  and  _80
REMARK   35  A    between atoms: _83  and  _85
REMARK   36  A    between atoms: _85  and  _86
REMARK   37  A    between atoms: _85  and  _88
REMARK   38  A    between atoms: _88  and  _89
REMARK   39  A    between atoms: _92  and  _94
REMARK   40  A    between atoms: _94  and  _95
REMARK   41  A    between atoms: _94  and  _97
REMARK   42  A    between atoms: _100  and  _102
REMARK   43  A    between atoms: _102  and  _103
REMARK   44  A    between atoms: _102  and  _105
REMARK   45  A    between atoms: _105  and  _106
REMARK   46  A    between atoms: _106  and  _107
REMARK   47  A    between atoms: _109  and  _111
REMARK   48  A    between atoms: _111  and  _112
REMARK   49  A    between atoms: _111  and  _114
REMARK   50  A    between atoms: _114  and  _115
REMARK   51  A    between atoms: _118  and  _120
REMARK   52  A    between atoms: _120  and  _121
REMARK   53  A    between atoms: _123  and  _125
REMARK   54  A    between atoms: _125  and  _126
REMARK   55  A    between atoms: _128  and  _130
REMARK   56  A    between atoms: _130  and  _131
REMARK   57  A    between atoms: _130  and  _133
REMARK   58  A    between atoms: _133  and  _134
REMARK   59  A    between atoms: _137  and  _139
REMARK   60  A    between atoms: _139  and  _140
REMARK   61  A    between atoms: _142  and  _144
REMARK   62  A    between atoms: _144  and  _145
REMARK   63  A    between atoms: _147  and  _149
REMARK   64  A    between atoms: _149  and  _150
REMARK   65  A    between atoms: _149  and  _152
REMARK   66  A    between atoms: _152  and  _153
REMARK   67  A    between atoms: _159  and  _161
REMARK   68  A    between atoms: _161  and  _162
REMARK   69  A    between atoms: _161  and  _164
REMARK   70  A    between atoms: _164  and  _165
REMARK   71  A    between atoms: _168  and  _170
REMARK   72  A    between atoms: _170  and  _171
REMARK   73  A    between atoms: _170  and  _173
REMARK   74  A    between atoms: _176  and  _178
REMARK   75  A    between atoms: _178  and  _179
REMARK   76  A    between atoms: _178  and  _181
REMARK   77  A    between atoms: _181  and  _182
REMARK   78  A    between atoms: _186  and  _187
REMARK   79  A    between atoms: _192  and  _194
REMARK   80  A    between atoms: _194  and  _195
REMARK   81  A    between atoms: _194  and  _197
REMARK   82  A    between atoms: _197  and  _198
REMARK   83  A    between atoms: _202  and  _203
REMARK   84  A    between atoms: _208  and  _210
REMARK   85  A    between atoms: _210  and  _211
REMARK   86  A    between atoms: _210  and  _213
REMARK   87  A    between atoms: _216  and  _218
REMARK   88  A    between atoms: _218  and  _219
REMARK   89  A    between atoms: _218  and  _221
REMARK   90  A    between atoms: _221  and  _222
REMARK   91  A    between atoms: _227  and  _229
REMARK   92  A    between atoms: _229  and  _230
REMARK   93  A    between atoms: _229  and  _232
REMARK   94  A    between atoms: _232  and  _233
REMARK   95  A    between atoms: _236  and  _238
REMARK   96  A    between atoms: _238  and  _239
REMARK   97  A    between atoms: _238  and  _241
REMARK   98  A    between atoms: _241  and  _242
REMARK   99  A    between atoms: _245  and  _247
REMARK  100  A    between atoms: _247  and  _248
REMARK  101  A    between atoms: _250  and  _252
REMARK  102  A    between atoms: _252  and  _253
REMARK  103  A    between atoms: _252  and  _255
REMARK  104  A    between atoms: _255  and  _256
REMARK  105  A    between atoms: _256  and  _257
REMARK  106  A    between atoms: _257  and  _258
REMARK  107  A    between atoms: _267  and  _269
REMARK  108  A    between atoms: _269  and  _270
REMARK  109  A    between atoms: _269  and  _272
REMARK  110  A    between atoms: _272  and  _273
REMARK  111  A    between atoms: _278  and  _280
REMARK  112  A    between atoms: _280  and  _281
REMARK  113  A    between atoms: _280  and  _283
REMARK  114  A    between atoms: _283  and  _284
REMARK  115  A    between atoms: _284  and  _285
REMARK  116  A    between atoms: _285  and  _286
REMARK  117  A    between atoms: _295  and  _297
REMARK  118  A    between atoms: _297  and  _298
REMARK  119  A    between atoms: _297  and  _300
REMARK  120  A    between atoms: _300  and  _301
REMARK  121  A    between atoms: _304  and  _306
REMARK  122  A    between atoms: _306  and  _307
REMARK  123  A    between atoms: _306  and  _309
REMARK  124  A    between atoms: _309  and  _310
REMARK  125  A    between atoms: _313  and  _315
REMARK  126  A    between atoms: _315  and  _316
REMARK  127  A    between atoms: _315  and  _318
REMARK  128  A    between atoms: _318  and  _319
REMARK  129  A    between atoms: _322  and  _324
REMARK  130  A    between atoms: _324  and  _325
REMARK  131  A    between atoms: _324  and  _327
REMARK  132  A    between atoms: _327  and  _328
REMARK  133  A    between atoms: _331  and  _333
REMARK  134  A    between atoms: _333  and  _334
REMARK  135  A    between atoms: _336  and  _338
REMARK  136  A    between atoms: _338  and  _339
REMARK  137  A    between atoms: _342  and  _344
REMARK  138  A    between atoms: _344  and  _345
REMARK  139  A    between atoms: _344  and  _347
REMARK  140  A    between atoms: _347  and  _348
REMARK  141  A    between atoms: _351  and  _353
REMARK  142  A    between atoms: _353  and  _354
REMARK  143  A    between atoms: _353  and  _356
REMARK  144  A    between atoms: _356  and  _357
REMARK  145  A    between atoms: _360  and  _362
REMARK  146  A    between atoms: _362  and  _363
REMARK  147  A    between atoms: _362  and  _365
REMARK  148  A    between atoms: _365  and  _366
REMARK  149  A    between atoms: _369  and  _371
REMARK  150  A    between atoms: _371  and  _372
REMARK  151  A    between atoms: _371  and  _374
REMARK  152  A    between atoms: _377  and  _379
REMARK  153  A    between atoms: _379  and  _380
REMARK  154  A    between atoms: _379  and  _382
REMARK  155  A    between atoms: _383  and  _384
REMARK  156  A    between atoms: _384  and  _385
REMARK  157  A    between atoms: _385  and  _386
REMARK  158  A    between atoms: _390  and  _392
REMARK  159  A    between atoms: _392  and  _393
REMARK  160  A    between atoms: _392  and  _395
REMARK  161  A    between atoms: _395  and  _396
REMARK  162  A    between atoms: _396  and  _397
REMARK  163  A    between atoms: _399  and  _401
REMARK  164  A    between atoms: _401  and  _402
REMARK  165  A    between atoms: _401  and  _404
REMARK  166  A    between atoms: _404  and  _405
REMARK  167  A    between atoms: _408  and  _410
REMARK  168  A    between atoms: _410  and  _411
REMARK  169  A    between atoms: _413  and  _415
REMARK  170  A    between atoms: _415  and  _416
REMARK  171  A    between atoms: _418  and  _420
REMARK  172  A    between atoms: _420  and  _421
REMARK  173  A    between atoms: _420  and  _423
REMARK  174  A    between atoms: _423  and  _424
REMARK  175  A    between atoms: _427  and  _429
REMARK  176  A    between atoms: _429  and  _430
REMARK  177  A    between atoms: _432  and  _434
REMARK  178  A    between atoms: _434  and  _435
REMARK  179  A    between atoms: _437  and  _439
REMARK  180  A    between atoms: _439  and  _440
REMARK  181  A    between atoms: _439  and  _442
REMARK  182  A    between atoms: _442  and  _443
REMARK  183  A    between atoms: _449  and  _451
REMARK  184  A    between atoms: _451  and  _452
REMARK  185  A    between atoms: _451  and  _454
REMARK  186  A    between atoms: _454  and  _455
REMARK  187  A    between atoms: _458  and  _460
REMARK  188  A    between atoms: _460  and  _461
REMARK  189  A    between atoms: _460  and  _463
REMARK  190  A    between atoms: _466  and  _468
REMARK  191  A    between atoms: _468  and  _469
REMARK  192  A    between atoms: _468  and  _471
REMARK  193  A    between atoms: _471  and  _472
REMARK  194  A    between atoms: _475  and  _477
REMARK  195  A    between atoms: _477  and  _478
REMARK  196  A    between atoms: _477  and  _480
REMARK  197  A    between atoms: _480  and  _481
REMARK  198  A    between atoms: _485  and  _486
REMARK  199  A    between atoms: _491  and  _493
REMARK  200  A    between atoms: _493  and  _494
REMARK  201  A    between atoms: _493  and  _496
REMARK  202  A    between atoms: _499  and  _501
REMARK  203  A    between atoms: _501  and  _502
REMARK  204  A    between atoms: _501  and  _504
REMARK  205  A    between atoms: _504  and  _505
REMARK  206  A    between atoms: _510  and  _512
REMARK  207  A    between atoms: _512  and  _513
REMARK  208  A    between atoms: _512  and  _515
REMARK  209  A    between atoms: _515  and  _516
REMARK  210  A    between atoms: _519  and  _521
REMARK  211  A    between atoms: _521  and  _522
REMARK  212  A    between atoms: _521  and  _524
REMARK  213  A    between atoms: _524  and  _525
REMARK  214  A    between atoms: _528  and  _530
REMARK  215  A    between atoms: _530  and  _531
REMARK  216  A    between atoms: _533  and  _535
REMARK  217  A    between atoms: _535  and  _536
REMARK  218  A    between atoms: _535  and  _538
REMARK  219  A    between atoms: _538  and  _539
REMARK  220  A    between atoms: _539  and  _540
REMARK  221  A    between atoms: _540  and  _541
REMARK  222  A    between atoms: _550  and  _552
REMARK  223  A    between atoms: _552  and  _553
REMARK  224  A    between atoms: _552  and  _555
REMARK  225  A    between atoms: _555  and  _556
REMARK                            x       y       z     vdW  Elec       q    Type
REMARK                         _______ _______ _______ _____ _____    ______ ____
ROOT
ATOM      1  O   HOH     1       6.777  34.319  11.118  0.00  0.00    +0.000 OA
ENDROOT
TORSDOF 0
REMARK  Name = ../refined-set-2016/1izh/1izh_pocket.pdb
REMARK  225 active torsions:
REMARK  status: ('A' for Active; 'I' for Inactive)
REMARK    1  A    between atoms: _1  and  _3
REMARK    2  A    between atoms: _3  and  _4
REMARK    3  A    between atoms: _3  and  _6
REMARK    4  A    between atoms: _6  and  _7
REMARK    5  A    between atoms: _7  and  _8
REMARK    6  A    between atoms: _8  and  _9
REMARK    7  A    between atoms: _18  and  _20
REMARK    8  A    between atoms: _20  and  _21
REMARK    9  A    between atoms: _20  and  _23
REMARK   10  A    between atoms: _23  and  _24
REMARK   11  A    between atoms: _27  and  _29
REMARK   12  A    between atoms: _29  and  _30
REMARK   13  A    between atoms: _29  and  _32
REMARK   14  A    between atoms: _32  and  _33
REMARK   15  A    between atoms: _36  and  _38
REMARK   16  A    between atoms: _38  and  _39
REMARK   17  A    between atoms: _38  and  _41
REMARK   18  A    between atoms: _41  and  _42
REMARK   19  A    between atoms: _45  and  _47
REMARK   20  A    between atoms: _47  and  _48
REMARK   21  A    between atoms: _47  and  _50
REMARK   22  A    between atoms: _50  and  _51
REMARK   23  A    between atoms: _54  and  _56
REMARK   24  A    between atoms: _56  and  _57
REMARK   25  A    between atoms: _59  and  _61
REMARK   26  A    between atoms: _61  and  _62
REMARK   27  A    between atoms: _65  and  _67
REMARK   28  A    between atoms: _67  and  _68
REMARK   29  A    between atoms: _67  and  _70
REMARK   30  A    between atoms: _70  and  _71
REMARK   31  A    between atoms: _74  and  _76
REMARK   32  A    between atoms: _76  and  _77
REMARK   33  A    between atoms: _76  and  _79
REMARK   34  A    between atoms: _79  and  _80
REMARK   35  A    between atoms: _83  and  _85
REMARK   36  A    between atoms: _85  and  _86
REMARK   37  A    between atoms: _85  and  _88
REMARK   38  A    between atoms: _88  and  _89
REMARK   39  A    between atoms: _92  and  _94
REMARK   40  A    between atoms: _94  and  _95
REMARK   41  A    between atoms: _94  and  _97
REMARK   42  A    between atoms: _100  and  _102
REMARK   43  A    between atoms: _102  and  _103
REMARK   44  A    between atoms: _102  and  _105
REMARK   45  A    between atoms: _105  and  _106
REMARK   46  A    between atoms: _106  and  _107
REMARK   47  A    between atoms: _109  and  _111
REMARK   48  A    between atoms: _111  and  _112
REMARK   49  A    between atoms: _111  and  _114
REMARK   50  A    between atoms: _114  and  _115
REMARK   51  A    between atoms: _118  and  _120
REMARK   52  A    between atoms: _120  and  _121
REMARK   53  A    between atoms: _123  and  _125
REMARK   54  A    between atoms: _125  and  _126
REMARK   55  A    between atoms: _128  and  _130
REMARK   56  A    between atoms: _130  and  _131
REMARK   57  A    between atoms: _130  and  _133
REMARK   58  A    between atoms: _133  and  _134
REMARK   59  A    between atoms: _137  and  _139
REMARK   60  A    between atoms: _139  and  _140
REMARK   61  A    between atoms: _142  and  _144
REMARK   62  A    between atoms: _144  and  _145
REMARK   63  A    between atoms: _147  and  _149
REMARK   64  A    between atoms: _149  and  _150
REMARK   65  A    between atoms: _149  and  _152
REMARK   66  A    between atoms: _152  and  _153
REMARK   67  A    between atoms: _159  and  _161
REMARK   68  A    between atoms: _161  and  _162
REMARK   69  A    between atoms: _161  and  _164
REMARK   70  A    between atoms: _164  and  _165
REMARK   71  A    between atoms: _168  and  _170
REMARK   72  A    between atoms: _170  and  _171
REMARK   73  A    between atoms: _170  and  _173
REMARK   74  A    between atoms: _176  and  _178
REMARK   75  A    between atoms: _178  and  _179
REMARK   76  A    between atoms: _178  and  _181
REMARK   77  A    between atoms: _181  and  _182
REMARK   78  A    between atoms: _186  and  _187
REMARK   79  A    between atoms: _192  and  _194
REMARK   80  A    between atoms: _194  and  _195
REMARK   81  A    between atoms: _194  and  _197
REMARK   82  A    between atoms: _197  and  _198
REMARK   83  A    between atoms: _202  and  _203
REMARK   84  A    between atoms: _208  and  _210
REMARK   85  A    between atoms: _210  and  _211
REMARK   86  A    between atoms: _210  and  _213
REMARK   87  A    between atoms: _216  and  _218
REMARK   88  A    between atoms: _218  and  _219
REMARK   89  A    between atoms: _218  and  _221
REMARK   90  A    between atoms: _221  and  _222
REMARK   91  A    between atoms: _227  and  _229
REMARK   92  A    between atoms: _229  and  _230
REMARK   93  A    between atoms: _229  and  _232
REMARK   94  A    between atoms: _232  and  _233
REMARK   95  A    between atoms: _236  and  _238
REMARK   96  A    between atoms: _238  and  _239
REMARK   97  A    between atoms: _238  and  _241
REMARK   98  A    between atoms: _241  and  _242
REMARK   99  A    between atoms: _245  and  _247
REMARK  100  A    between atoms: _247  and  _248
REMARK  101  A    between atoms: _250  and  _252
REMARK  102  A    between atoms: _252  and  _253
REMARK  103  A    between atoms: _252  and  _255
REMARK  104  A    between atoms: _255  and  _256
REMARK  105  A    between atoms: _256  and  _257
REMARK  106  A    between atoms: _257  and  _258
REMARK  107  A    between atoms: _267  and  _269
REMARK  108  A    between atoms: _269  and  _270
REMARK  109  A    between atoms: _269  and  _272
REMARK  110  A    between atoms: _272  and  _273
REMARK  111  A    between atoms: _278  and  _280
REMARK  112  A    between atoms: _280  and  _281
REMARK  113  A    between atoms: _280  and  _283
REMARK  114  A    between atoms: _283  and  _284
REMARK  115  A    between atoms: _284  and  _285
REMARK  116  A    between atoms: _285  and  _286
REMARK  117  A    between atoms: _295  and  _297
REMARK  118  A    between atoms: _297  and  _298
REMARK  119  A    between atoms: _297  and  _300
REMARK  120  A    between atoms: _300  and  _301
REMARK  121  A    between atoms: _304  and  _306
REMARK  122  A    between atoms: _306  and  _307
REMARK  123  A    between atoms: _306  and  _309
REMARK  124  A    between atoms: _309  and  _310
REMARK  125  A    between atoms: _313  and  _315
REMARK  126  A    between atoms: _315  and  _316
REMARK  127  A    between atoms: _315  and  _318
REMARK  128  A    between atoms: _318  and  _319
REMARK  129  A    between atoms: _322  and  _324
REMARK  130  A    between atoms: _324  and  _325
REMARK  131  A    between atoms: _324  and  _327
REMARK  132  A    between atoms: _327  and  _328
REMARK  133  A    between atoms: _331  and  _333
REMARK  134  A    between atoms: _333  and  _334
REMARK  135  A    between atoms: _336  and  _338
REMARK  136  A    between atoms: _338  and  _339
REMARK  137  A    between atoms: _342  and  _344
REMARK  138  A    between atoms: _344  and  _345
REMARK  139  A    between atoms: _344  and  _347
REMARK  140  A    between atoms: _347  and  _348
REMARK  141  A    between atoms: _351  and  _353
REMARK  142  A    between atoms: _353  and  _354
REMARK  143  A    between atoms: _353  and  _356
REMARK  144  A    between atoms: _356  and  _357
REMARK  145  A    between atoms: _360  and  _362
REMARK  146  A    between atoms: _362  and  _363
REMARK  147  A    between atoms: _362  and  _365
REMARK  148  A    between atoms: _365  and  _366
REMARK  149  A    between atoms: _369  and  _371
REMARK  150  A    between atoms: _371  and  _372
REMARK  151  A    between atoms: _371  and  _374
REMARK  152  A    between atoms: _377  and  _379
REMARK  153  A    between atoms: _379  and  _380
REMARK  154  A    between atoms: _379  and  _382
REMARK  155  A    between atoms: _383  and  _384
REMARK  156  A    between atoms: _384  and  _385
REMARK  157  A    between atoms: _385  and  _386
REMARK  158  A    between atoms: _390  and  _392
REMARK  159  A    between atoms: _392  and  _393
REMARK  160  A    between atoms: _392  and  _395
REMARK  161  A    between atoms: _395  and  _396
REMARK  162  A    between atoms: _396  and  _397
REMARK  163  A    between atoms: _399  and  _401
REMARK  164  A    between atoms: _401  and  _402
REMARK  165  A    between atoms: _401  and  _404
REMARK  166  A    between atoms: _404  and  _405
REMARK  167  A    between atoms: _408  and  _410
REMARK  168  A    between atoms: _410  and  _411
REMARK  169  A    between atoms: _413  and  _415
REMARK  170  A    between atoms: _415  and  _416
REMARK  171  A    between atoms: _418  and  _420
REMARK  172  A    between atoms: _420  and  _421
REMARK  173  A    between atoms: _420  and  _423
REMARK  174  A    between atoms: _423  and  _424
REMARK  175  A    between atoms: _427  and  _429
REMARK  176  A    between atoms: _429  and  _430
REMARK  177  A    between atoms: _432  and  _434
REMARK  178  A    between atoms: _434  and  _435
REMARK  179  A    between atoms: _437  and  _439
REMARK  180  A    between atoms: _439  and  _440
REMARK  181  A    between atoms: _439  and  _442
REMARK  182  A    between atoms: _442  and  _443
REMARK  183  A    between atoms: _449  and  _451
REMARK  184  A    between atoms: _451  and  _452
REMARK  185  A    between atoms: _451  and  _454
REMARK  186  A    between atoms: _454  and  _455
REMARK  187  A    between atoms: _458  and  _460
REMARK  188  A    between atoms: _460  and  _461
REMARK  189  A    between atoms: _460  and  _463
REMARK  190  A    between atoms: _466  and  _468
REMARK  191  A    between atoms: _468  and  _469
REMARK  192  A    between atoms: _468  and  _471
REMARK  193  A    between atoms: _471  and  _472
REMARK  194  A    between atoms: _475  and  _477
REMARK  195  A    between atoms: _477  and  _478
REMARK  196  A    between atoms: _477  and  _480
REMARK  197  A    between atoms: _480  and  _481
REMARK  198  A    between atoms: _485  and  _486
REMARK  199  A    between atoms: _491  and  _493
REMARK  200  A    between atoms: _493  and  _494
REMARK  201  A    between atoms: _493  and  _496
REMARK  202  A    between atoms: _499  and  _501
REMARK  203  A    between atoms: _501  and  _502
REMARK  204  A    between atoms: _501  and  _504
REMARK  205  A    between atoms: _504  and  _505
REMARK  206  A    between atoms: _510  and  _512
REMARK  207  A    between atoms: _512  and  _513
REMARK  208  A    between atoms: _512  and  _515
REMARK  209  A    between atoms: _515  and  _516
REMARK  210  A    between atoms: _519  and  _521
REMARK  211  A    between atoms: _521  and  _522
REMARK  212  A    between atoms: _521  and  _524
REMARK  213  A    between atoms: _524  and  _525
REMARK  214  A    between atoms: _528  and  _530
REMARK  215  A    between atoms: _530  and  _531
REMARK  216  A    between atoms: _533  and  _535
REMARK  217  A    between atoms: _535  and  _536
REMARK  218  A    between atoms: _535  and  _538
REMARK  219  A    between atoms: _538  and  _539
REMARK  220  A    between atoms: _539  and  _540
REMARK  221  A    between atoms: _540  and  _541
REMARK  222  A    between atoms: _550  and  _552
REMARK  223  A    between atoms: _552  and  _553
REMARK  224  A    between atoms: _552  and  _555
REMARK  225  A    between atoms: _555  and  _556
REMARK                            x       y       z     vdW  Elec       q    Type
REMARK                         _______ _______ _______ _____ _____    ______ ____
ROOT
ATOM      1  O   HOH     1       3.443  30.905   9.490  0.00  0.00    +0.000 OA
ENDROOT
TORSDOF 0
REMARK  Name = ../refined-set-2016/1izh/1izh_pocket.pdb
REMARK  225 active torsions:
REMARK  status: ('A' for Active; 'I' for Inactive)
REMARK    1  A    between atoms: _1  and  _3
REMARK    2  A    between atoms: _3  and  _4
REMARK    3  A    between atoms: _3  and  _6
REMARK    4  A    between atoms: _6  and  _7
REMARK    5  A    between atoms: _7  and  _8
REMARK    6  A    between atoms: _8  and  _9
REMARK    7  A    between atoms: _18  and  _20
REMARK    8  A    between atoms: _20  and  _21
REMARK    9  A    between atoms: _20  and  _23
REMARK   10  A    between atoms: _23  and  _24
REMARK   11  A    between atoms: _27  and  _29
REMARK   12  A    between atoms: _29  and  _30
REMARK   13  A    between atoms: _29  and  _32
REMARK   14  A    between atoms: _32  and  _33
REMARK   15  A    between atoms: _36  and  _38
REMARK   16  A    between atoms: _38  and  _39
REMARK   17  A    between atoms: _38  and  _41
REMARK   18  A    between atoms: _41  and  _42
REMARK   19  A    between atoms: _45  and  _47
REMARK   20  A    between atoms: _47  and  _48
REMARK   21  A    between atoms: _47  and  _50
REMARK   22  A    between atoms: _50  and  _51
REMARK   23  A    between atoms: _54  and  _56
REMARK   24  A    between atoms: _56  and  _57
REMARK   25  A    between atoms: _59  and  _61
REMARK   26  A    between atoms: _61  and  _62
REMARK   27  A    between atoms: _65  and  _67
REMARK   28  A    between atoms: _67  and  _68
REMARK   29  A    between atoms: _67  and  _70
REMARK   30  A    between atoms: _70  and  _71
REMARK   31  A    between atoms: _74  and  _76
REMARK   32  A    between atoms: _76  and  _77
REMARK   33  A    between atoms: _76  and  _79
REMARK   34  A    between atoms: _79  and  _80
REMARK   35  A    between atoms: _83  and  _85
REMARK   36  A    between atoms: _85  and  _86
REMARK   37  A    between atoms: _85  and  _88
REMARK   38  A    between atoms: _88  and  _89
REMARK   39  A    between atoms: _92  and  _94
REMARK   40  A    between atoms: _94  and  _95
REMARK   41  A    between atoms: _94  and  _97
REMARK   42  A    between atoms: _100  and  _102
REMARK   43  A    between atoms: _102  and  _103
REMARK   44  A    between atoms: _102  and  _105
REMARK   45  A    between atoms: _105  and  _106
REMARK   46  A    between atoms: _106  and  _107
REMARK   47  A    between atoms: _109  and  _111
REMARK   48  A    between atoms: _111  and  _112
REMARK   49  A    between atoms: _111  and  _114
REMARK   50  A    between atoms: _114  and  _115
REMARK   51  A    between atoms: _118  and  _120
REMARK   52  A    between atoms: _120  and  _121
REMARK   53  A    between atoms: _123  and  _125
REMARK   54  A    between atoms: _125  and  _126
REMARK   55  A    between atoms: _128  and  _130
REMARK   56  A    between atoms: _130  and  _131
REMARK   57  A    between atoms: _130  and  _133
REMARK   58  A    between atoms: _133  and  _134
REMARK   59  A    between atoms: _137  and  _139
REMARK   60  A    between atoms: _139  and  _140
REMARK   61  A    between atoms: _142  and  _144
REMARK   62  A    between atoms: _144  and  _145
REMARK   63  A    between atoms: _147  and  _149
REMARK   64  A    between atoms: _149  and  _150
REMARK   65  A    between atoms: _149  and  _152
REMARK   66  A    between atoms: _152  and  _153
REMARK   67  A    between atoms: _159  and  _161
REMARK   68  A    between atoms: _161  and  _162
REMARK   69  A    between atoms: _161  and  _164
REMARK   70  A    between atoms: _164  and  _165
REMARK   71  A    between atoms: _168  and  _170
REMARK   72  A    between atoms: _170  and  _171
REMARK   73  A    between atoms: _170  and  _173
REMARK   74  A    between atoms: _176  and  _178
REMARK   75  A    between atoms: _178  and  _179
REMARK   76  A    between atoms: _178  and  _181
REMARK   77  A    between atoms: _181  and  _182
REMARK   78  A    between atoms: _186  and  _187
REMARK   79  A    between atoms: _192  and  _194
REMARK   80  A    between atoms: _194  and  _195
REMARK   81  A    between atoms: _194  and  _197
REMARK   82  A    between atoms: _197  and  _198
REMARK   83  A    between atoms: _202  and  _203
REMARK   84  A    between atoms: _208  and  _210
REMARK   85  A    between atoms: _210  and  _211
REMARK   86  A    between atoms: _210  and  _213
REMARK   87  A    between atoms: _216  and  _218
REMARK   88  A    between atoms: _218  and  _219
REMARK   89  A    between atoms: _218  and  _221
REMARK   90  A    between atoms: _221  and  _222
REMARK   91  A    between atoms: _227  and  _229
REMARK   92  A    between atoms: _229  and  _230
REMARK   93  A    between atoms: _229  and  _232
REMARK   94  A    between atoms: _232  and  _233
REMARK   95  A    between atoms: _236  and  _238
REMARK   96  A    between atoms: _238  and  _239
REMARK   97  A    between atoms: _238  and  _241
REMARK   98  A    between atoms: _241  and  _242
REMARK   99  A    between atoms: _245  and  _247
REMARK  100  A    between atoms: _247  and  _248
REMARK  101  A    between atoms: _250  and  _252
REMARK  102  A    between atoms: _252  and  _253
REMARK  103  A    between atoms: _252  and  _255
REMARK  104  A    between atoms: _255  and  _256
REMARK  105  A    between atoms: _256  and  _257
REMARK  106  A    between atoms: _257  and  _258
REMARK  107  A    between atoms: _267  and  _269
REMARK  108  A    between atoms: _269  and  _270
REMARK  109  A    between atoms: _269  and  _272
REMARK  110  A    between atoms: _272  and  _273
REMARK  111  A    between atoms: _278  and  _280
REMARK  112  A    between atoms: _280  and  _281
REMARK  113  A    between atoms: _280  and  _283
REMARK  114  A    between atoms: _283  and  _284
REMARK  115  A    between atoms: _284  and  _285
REMARK  116  A    between atoms: _285  and  _286
REMARK  117  A    between atoms: _295  and  _297
REMARK  118  A    between atoms: _297  and  _298
REMARK  119  A    between atoms: _297  and  _300
REMARK  120  A    between atoms: _300  and  _301
REMARK  121  A    between atoms: _304  and  _306
REMARK  122  A    between atoms: _306  and  _307
REMARK  123  A    between atoms: _306  and  _309
REMARK  124  A    between atoms: _309  and  _310
REMARK  125  A    between atoms: _313  and  _315
REMARK  126  A    between atoms: _315  and  _316
REMARK  127  A    between atoms: _315  and  _318
REMARK  128  A    between atoms: _318  and  _319
REMARK  129  A    between atoms: _322  and  _324
REMARK  130  A    between atoms: _324  and  _325
REMARK  131  A    between atoms: _324  and  _327
REMARK  132  A    between atoms: _327  and  _328
REMARK  133  A    between atoms: _331  and  _333
REMARK  134  A    between atoms: _333  and  _334
REMARK  135  A    between atoms: _336  and  _338
REMARK  136  A    between atoms: _338  and  _339
REMARK  137  A    between atoms: _342  and  _344
REMARK  138  A    between atoms: _344  and  _345
REMARK  139  A    between atoms: _344  and  _347
REMARK  140  A    between atoms: _347  and  _348
REMARK  141  A    between atoms: _351  and  _353
REMARK  142  A    between atoms: _353  and  _354
REMARK  143  A    between atoms: _353  and  _356
REMARK  144  A    between atoms: _356  and  _357
REMARK  145  A    between atoms: _360  and  _362
REMARK  146  A    between atoms: _362  and  _363
REMARK  147  A    between atoms: _362  and  _365
REMARK  148  A    between atoms: _365  and  _366
REMARK  149  A    between atoms: _369  and  _371
REMARK  150  A    between atoms: _371  and  _372
REMARK  151  A    between atoms: _371  and  _374
REMARK  152  A    between atoms: _377  and  _379
REMARK  153  A    between atoms: _379  and  _380
REMARK  154  A    between atoms: _379  and  _382
REMARK  155  A    between atoms: _383  and  _384
REMARK  156  A    between atoms: _384  and  _385
REMARK  157  A    between atoms: _385  and  _386
REMARK  158  A    between atoms: _390  and  _392
REMARK  159  A    between atoms: _392  and  _393
REMARK  160  A    between atoms: _392  and  _395
REMARK  161  A    between atoms: _395  and  _396
REMARK  162  A    between atoms: _396  and  _397
REMARK  163  A    between atoms: _399  and  _401
REMARK  164  A    between atoms: _401  and  _402
REMARK  165  A    between atoms: _401  and  _404
REMARK  166  A    between atoms: _404  and  _405
REMARK  167  A    between atoms: _408  and  _410
REMARK  168  A    between atoms: _410  and  _411
REMARK  169  A    between atoms: _413  and  _415
REMARK  170  A    between atoms: _415  and  _416
REMARK  171  A    between atoms: _418  and  _420
REMARK  172  A    between atoms: _420  and  _421
REMARK  173  A    between atoms: _420  and  _423
REMARK  174  A    between atoms: _423  and  _424
REMARK  175  A    between atoms: _427  and  _429
REMARK  176  A    between atoms: _429  and  _430
REMARK  177  A    between atoms: _432  and  _434
REMARK  178  A    between atoms: _434  and  _435
REMARK  179  A    between atoms: _437  and  _439
REMARK  180  A    between atoms: _439  and  _440
REMARK  181  A    between atoms: _439  and  _442
REMARK  182  A    between atoms: _442  and  _443
REMARK  183  A    between atoms: _449  and  _451
REMARK  184  A    between atoms: _451  and  _452
REMARK  185  A    between atoms: _451  and  _454
REMARK  186  A    between atoms: _454  and  _455
REMARK  187  A    between atoms: _458  and  _460
REMARK  188  A    between atoms: _460  and  _461
REMARK  189  A    between atoms: _460  and  _463
REMARK  190  A    between atoms: _466  and  _468
REMARK  191  A    between atoms: _468  and  _469
REMARK  192  A    between atoms: _468  and  _471
REMARK  193  A    between atoms: _471  and  _472
REMARK  194  A    between atoms: _475  and  _477
REMARK  195  A    between atoms: _477  and  _478
REMARK  196  A    between atoms: _477  and  _480
REMARK  197  A    between atoms: _480  and  _481
REMARK  198  A    between atoms: _485  and  _486
REMARK  199  A    between atoms: _491  and  _493
REMARK  200  A    between atoms: _493  and  _494
REMARK  201  A    between atoms: _493  and  _496
REMARK  202  A    between atoms: _499  and  _501
REMARK  203  A    between atoms: _501  and  _502
REMARK  204  A    between atoms: _501  and  _504
REMARK  205  A    between atoms: _504  and  _505
REMARK  206  A    between atoms: _510  and  _512
REMARK  207  A    between atoms: _512  and  _513
REMARK  208  A    between atoms: _512  and  _515
REMARK  209  A    between atoms: _515  and  _516
REMARK  210  A    between atoms: _519  and  _521
REMARK  211  A    between atoms: _521  and  _522
REMARK  212  A    between atoms: _521  and  _524
REMARK  213  A    between atoms: _524  and  _525
REMARK  214  A    between atoms: _528  and  _530
REMARK  215  A    between atoms: _530  and  _531
REMARK  216  A    between atoms: _533  and  _535
REMARK  217  A    between atoms: _535  and  _536
REMARK  218  A    between atoms: _535  and  _538
REMARK  219  A    between atoms: _538  and  _539
REMARK  220  A    between atoms: _539  and  _540
REMARK  221  A    between atoms: _540  and  _541
REMARK  222  A    between atoms: _550  and  _552
REMARK  223  A    between atoms: _552  and  _553
REMARK  224  A    between atoms: _552  and  _555
REMARK  225  A    between atoms: _555  and  _556
REMARK                            x       y       z     vdW  Elec       q    Type
REMARK                         _______ _______ _______ _____ _____    ______ ____
ROOT
ATOM      1  O   HOH     1       1.883  27.885   9.667  0.00  0.00    +0.000 OA
ENDROOT
TORSDOF 0
REMARK  Name = ../refined-set-2016/1izh/1izh_pocket.pdb
REMARK  225 active torsions:
REMARK  status: ('A' for Active; 'I' for Inactive)
REMARK    1  A    between atoms: _1  and  _3
REMARK    2  A    between atoms: _3  and  _4
REMARK    3  A    between atoms: _3  and  _6
REMARK    4  A    between atoms: _6  and  _7
REMARK    5  A    between atoms: _7  and  _8
REMARK    6  A    between atoms: _8  and  _9
REMARK    7  A    between atoms: _18  and  _20
REMARK    8  A    between atoms: _20  and  _21
REMARK    9  A    between atoms: _20  and  _23
REMARK   10  A    between atoms: _23  and  _24
REMARK   11  A    between atoms: _27  and  _29
REMARK   12  A    between atoms: _29  and  _30
REMARK   13  A    between atoms: _29  and  _32
REMARK   14  A    between atoms: _32  and  _33
REMARK   15  A    between atoms: _36  and  _38
REMARK   16  A    between atoms: _38  and  _39
REMARK   17  A    between atoms: _38  and  _41
REMARK   18  A    between atoms: _41  and  _42
REMARK   19  A    between atoms: _45  and  _47
REMARK   20  A    between atoms: _47  and  _48
REMARK   21  A    between atoms: _47  and  _50
REMARK   22  A    between atoms: _50  and  _51
REMARK   23  A    between atoms: _54  and  _56
REMARK   24  A    between atoms: _56  and  _57
REMARK   25  A    between atoms: _59  and  _61
REMARK   26  A    between atoms: _61  and  _62
REMARK   27  A    between atoms: _65  and  _67
REMARK   28  A    between atoms: _67  and  _68
REMARK   29  A    between atoms: _67  and  _70
REMARK   30  A    between atoms: _70  and  _71
REMARK   31  A    between atoms: _74  and  _76
REMARK   32  A    between atoms: _76  and  _77
REMARK   33  A    between atoms: _76  and  _79
REMARK   34  A    between atoms: _79  and  _80
REMARK   35  A    between atoms: _83  and  _85
REMARK   36  A    between atoms: _85  and  _86
REMARK   37  A    between atoms: _85  and  _88
REMARK   38  A    between atoms: _88  and  _89
REMARK   39  A    between atoms: _92  and  _94
REMARK   40  A    between atoms: _94  and  _95
REMARK   41  A    between atoms: _94  and  _97
REMARK   42  A    between atoms: _100  and  _102
REMARK   43  A    between atoms: _102  and  _103
REMARK   44  A    between atoms: _102  and  _105
REMARK   45  A    between atoms: _105  and  _106
REMARK   46  A    between atoms: _106  and  _107
REMARK   47  A    between atoms: _109  and  _111
REMARK   48  A    between atoms: _111  and  _112
REMARK   49  A    between atoms: _111  and  _114
REMARK   50  A    between atoms: _114  and  _115
REMARK   51  A    between atoms: _118  and  _120
REMARK   52  A    between atoms: _120  and  _121
REMARK   53  A    between atoms: _123  and  _125
REMARK   54  A    between atoms: _125  and  _126
REMARK   55  A    between atoms: _128  and  _130
REMARK   56  A    between atoms: _130  and  _131
REMARK   57  A    between atoms: _130  and  _133
REMARK   58  A    between atoms: _133  and  _134
REMARK   59  A    between atoms: _137  and  _139
REMARK   60  A    between atoms: _139  and  _140
REMARK   61  A    between atoms: _142  and  _144
REMARK   62  A    between atoms: _144  and  _145
REMARK   63  A    between atoms: _147  and  _149
REMARK   64  A    between atoms: _149  and  _150
REMARK   65  A    between atoms: _149  and  _152
REMARK   66  A    between atoms: _152  and  _153
REMARK   67  A    between atoms: _159  and  _161
REMARK   68  A    between atoms: _161  and  _162
REMARK   69  A    between atoms: _161  and  _164
REMARK   70  A    between atoms: _164  and  _165
REMARK   71  A    between atoms: _168  and  _170
REMARK   72  A    between atoms: _170  and  _171
REMARK   73  A    between atoms: _170  and  _173
REMARK   74  A    between atoms: _176  and  _178
REMARK   75  A    between atoms: _178  and  _179
REMARK   76  A    between atoms: _178  and  _181
REMARK   77  A    between atoms: _181  and  _182
REMARK   78  A    between atoms: _186  and  _187
REMARK   79  A    between atoms: _192  and  _194
REMARK   80  A    between atoms: _194  and  _195
REMARK   81  A    between atoms: _194  and  _197
REMARK   82  A    between atoms: _197  and  _198
REMARK   83  A    between atoms: _202  and  _203
REMARK   84  A    between atoms: _208  and  _210
REMARK   85  A    between atoms: _210  and  _211
REMARK   86  A    between atoms: _210  and  _213
REMARK   87  A    between atoms: _216  and  _218
REMARK   88  A    between atoms: _218  and  _219
REMARK   89  A    between atoms: _218  and  _221
REMARK   90  A    between atoms: _221  and  _222
REMARK   91  A    between atoms: _227  and  _229
REMARK   92  A    between atoms: _229  and  _230
REMARK   93  A    between atoms: _229  and  _232
REMARK   94  A    between atoms: _232  and  _233
REMARK   95  A    between atoms: _236  and  _238
REMARK   96  A    between atoms: _238  and  _239
REMARK   97  A    between atoms: _238  and  _241
REMARK   98  A    between atoms: _241  and  _242
REMARK   99  A    between atoms: _245  and  _247
REMARK  100  A    between atoms: _247  and  _248
REMARK  101  A    between atoms: _250  and  _252
REMARK  102  A    between atoms: _252  and  _253
REMARK  103  A    between atoms: _252  and  _255
REMARK  104  A    between atoms: _255  and  _256
REMARK  105  A    between atoms: _256  and  _257
REMARK  106  A    between atoms: _257  and  _258
REMARK  107  A    between atoms: _267  and  _269
REMARK  108  A    between atoms: _269  and  _270
REMARK  109  A    between atoms: _269  and  _272
REMARK  110  A    between atoms: _272  and  _273
REMARK  111  A    between atoms: _278  and  _280
REMARK  112  A    between atoms: _280  and  _281
REMARK  113  A    between atoms: _280  and  _283
REMARK  114  A    between atoms: _283  and  _284
REMARK  115  A    between atoms: _284  and  _285
REMARK  116  A    between atoms: _285  and  _286
REMARK  117  A    between atoms: _295  and  _297
REMARK  118  A    between atoms: _297  and  _298
REMARK  119  A    between atoms: _297  and  _300
REMARK  120  A    between atoms: _300  and  _301
REMARK  121  A    between atoms: _304  and  _306
REMARK  122  A    between atoms: _306  and  _307
REMARK  123  A    between atoms: _306  and  _309
REMARK  124  A    between atoms: _309  and  _310
REMARK  125  A    between atoms: _313  and  _315
REMARK  126  A    between atoms: _315  and  _316
REMARK  127  A    between atoms: _315  and  _318
REMARK  128  A    between atoms: _318  and  _319
REMARK  129  A    between atoms: _322  and  _324
REMARK  130  A    between atoms: _324  and  _325
REMARK  131  A    between atoms: _324  and  _327
REMARK  132  A    between atoms: _327  and  _328
REMARK  133  A    between atoms: _331  and  _333
REMARK  134  A    between atoms: _333  and  _334
REMARK  135  A    between atoms: _336  and  _338
REMARK  136  A    between atoms: _338  and  _339
REMARK  137  A    between atoms: _342  and  _344
REMARK  138  A    between atoms: _344  and  _345
REMARK  139  A    between atoms: _344  and  _347
REMARK  140  A    between atoms: _347  and  _348
REMARK  141  A    between atoms: _351  and  _353
REMARK  142  A    between atoms: _353  and  _354
REMARK  143  A    between atoms: _353  and  _356
REMARK  144  A    between atoms: _356  and  _357
REMARK  145  A    between atoms: _360  and  _362
REMARK  146  A    between atoms: _362  and  _363
REMARK  147  A    between atoms: _362  and  _365
REMARK  148  A    between atoms: _365  and  _366
REMARK  149  A    between atoms: _369  and  _371
REMARK  150  A    between atoms: _371  and  _372
REMARK  151  A    between atoms: _371  and  _374
REMARK  152  A    between atoms: _377  and  _379
REMARK  153  A    between atoms: _379  and  _380
REMARK  154  A    between atoms: _379  and  _382
REMARK  155  A    between atoms: _383  and  _384
REMARK  156  A    between atoms: _384  and  _385
REMARK  157  A    between atoms: _385  and  _386
REMARK  158  A    between atoms: _390  and  _392
REMARK  159  A    between atoms: _392  and  _393
REMARK  160  A    between atoms: _392  and  _395
REMARK  161  A    between atoms: _395  and  _396
REMARK  162  A    between atoms: _396  and  _397
REMARK  163  A    between atoms: _399  and  _401
REMARK  164  A    between atoms: _401  and  _402
REMARK  165  A    between atoms: _401  and  _404
REMARK  166  A    between atoms: _404  and  _405
REMARK  167  A    between atoms: _408  and  _410
REMARK  168  A    between atoms: _410  and  _411
REMARK  169  A    between atoms: _413  and  _415
REMARK  170  A    between atoms: _415  and  _416
REMARK  171  A    between atoms: _418  and  _420
REMARK  172  A    between atoms: _420  and  _421
REMARK  173  A    between atoms: _420  and  _423
REMARK  174  A    between atoms: _423  and  _424
REMARK  175  A    between atoms: _427  and  _429
REMARK  176  A    between atoms: _429  and  _430
REMARK  177  A    between atoms: _432  and  _434
REMARK  178  A    between atoms: _434  and  _435
REMARK  179  A    between atoms: _437  and  _439
REMARK  180  A    between atoms: _439  and  _440
REMARK  181  A    between atoms: _439  and  _442
REMARK  182  A    between atoms: _442  and  _443
REMARK  183  A    between atoms: _449  and  _451
REMARK  184  A    between atoms: _451  and  _452
REMARK  185  A    between atoms: _451  and  _454
REMARK  186  A    between atoms: _454  and  _455
REMARK  187  A    between atoms: _458  and  _460
REMARK  188  A    between atoms: _460  and  _461
REMARK  189  A    between atoms: _460  and  _463
REMARK  190  A    between atoms: _466  and  _468
REMARK  191  A    between atoms: _468  and  _469
REMARK  192  A    between atoms: _468  and  _471
REMARK  193  A    between atoms: _471  and  _472
REMARK  194  A    between atoms: _475  and  _477
REMARK  195  A    between atoms: _477  and  _478
REMARK  196  A    between atoms: _477  and  _480
REMARK  197  A    between atoms: _480  and  _481
REMARK  198  A    between atoms: _485  and  _486
REMARK  199  A    between atoms: _491  and  _493
REMARK  200  A    between atoms: _493  and  _494
REMARK  201  A    between atoms: _493  and  _496
REMARK  202  A    between atoms: _499  and  _501
REMARK  203  A    between atoms: _501  and  _502
REMARK  204  A    between atoms: _501  and  _504
REMARK  205  A    between atoms: _504  and  _505
REMARK  206  A    between atoms: _510  and  _512
REMARK  207  A    between atoms: _512  and  _513
REMARK  208  A    between atoms: _512  and  _515
REMARK  209  A    between atoms: _515  and  _516
REMARK  210  A    between atoms: _519  and  _521
REMARK  211  A    between atoms: _521  and  _522
REMARK  212  A    between atoms: _521  and  _524
REMARK  213  A    between atoms: _524  and  _525
REMARK  214  A    between atoms: _528  and  _530
REMARK  215  A    between atoms: _530  and  _531
REMARK  216  A    between atoms: _533  and  _535
REMARK  217  A    between atoms: _535  and  _536
REMARK  218  A    between atoms: _535  and  _538
REMARK  219  A    between atoms: _538  and  _539
REMARK  220  A    between atoms: _539  and  _540
REMARK  221  A    between atoms: _540  and  _541
REMARK  222  A    between atoms: _550  and  _552
REMARK  223  A    between atoms: _552  and  _553
REMARK  224  A    between atoms: _552  and  _555
REMARK  225  A    between atoms: _555  and  _556
REMARK                            x       y       z     vdW  Elec       q    Type
REMARK                         _______ _______ _______ _____ _____    ______ ____
ROOT
ATOM      1  O   HOH     1      20.137  16.157  -3.755  0.00  0.00    +0.000 OA
ENDROOT
TORSDOF 0
REMARK  Name = ../refined-set-2016/1izh/1izh_pocket.pdb
REMARK  225 active torsions:
REMARK  status: ('A' for Active; 'I' for Inactive)
REMARK    1  A    between atoms: _1  and  _3
REMARK    2  A    between atoms: _3  and  _4
REMARK    3  A    between atoms: _3  and  _6
REMARK    4  A    between atoms: _6  and  _7
REMARK    5  A    between atoms: _7  and  _8
REMARK    6  A    between atoms: _8  and  _9
REMARK    7  A    between atoms: _18  and  _20
REMARK    8  A    between atoms: _20  and  _21
REMARK    9  A    between atoms: _20  and  _23
REMARK   10  A    between atoms: _23  and  _24
REMARK   11  A    between atoms: _27  and  _29
REMARK   12  A    between atoms: _29  and  _30
REMARK   13  A    between atoms: _29  and  _32
REMARK   14  A    between atoms: _32  and  _33
REMARK   15  A    between atoms: _36  and  _38
REMARK   16  A    between atoms: _38  and  _39
REMARK   17  A    between atoms: _38  and  _41
REMARK   18  A    between atoms: _41  and  _42
REMARK   19  A    between atoms: _45  and  _47
REMARK   20  A    between atoms: _47  and  _48
REMARK   21  A    between atoms: _47  and  _50
REMARK   22  A    between atoms: _50  and  _51
REMARK   23  A    between atoms: _54  and  _56
REMARK   24  A    between atoms: _56  and  _57
REMARK   25  A    between atoms: _59  and  _61
REMARK   26  A    between atoms: _61  and  _62
REMARK   27  A    between atoms: _65  and  _67
REMARK   28  A    between atoms: _67  and  _68
REMARK   29  A    between atoms: _67  and  _70
REMARK   30  A    between atoms: _70  and  _71
REMARK   31  A    between atoms: _74  and  _76
REMARK   32  A    between atoms: _76  and  _77
REMARK   33  A    between atoms: _76  and  _79
REMARK   34  A    between atoms: _79  and  _80
REMARK   35  A    between atoms: _83  and  _85
REMARK   36  A    between atoms: _85  and  _86
REMARK   37  A    between atoms: _85  and  _88
REMARK   38  A    between atoms: _88  and  _89
REMARK   39  A    between atoms: _92  and  _94
REMARK   40  A    between atoms: _94  and  _95
REMARK   41  A    between atoms: _94  and  _97
REMARK   42  A    between atoms: _100  and  _102
REMARK   43  A    between atoms: _102  and  _103
REMARK   44  A    between atoms: _102  and  _105
REMARK   45  A    between atoms: _105  and  _106
REMARK   46  A    between atoms: _106  and  _107
REMARK   47  A    between atoms: _109  and  _111
REMARK   48  A    between atoms: _111  and  _112
REMARK   49  A    between atoms: _111  and  _114
REMARK   50  A    between atoms: _114  and  _115
REMARK   51  A    between atoms: _118  and  _120
REMARK   52  A    between atoms: _120  and  _121
REMARK   53  A    between atoms: _123  and  _125
REMARK   54  A    between atoms: _125  and  _126
REMARK   55  A    between atoms: _128  and  _130
REMARK   56  A    between atoms: _130  and  _131
REMARK   57  A    between atoms: _130  and  _133
REMARK   58  A    between atoms: _133  and  _134
REMARK   59  A    between atoms: _137  and  _139
REMARK   60  A    between atoms: _139  and  _140
REMARK   61  A    between atoms: _142  and  _144
REMARK   62  A    between atoms: _144  and  _145
REMARK   63  A    between atoms: _147  and  _149
REMARK   64  A    between atoms: _149  and  _150
REMARK   65  A    between atoms: _149  and  _152
REMARK   66  A    between atoms: _152  and  _153
REMARK   67  A    between atoms: _159  and  _161
REMARK   68  A    between atoms: _161  and  _162
REMARK   69  A    between atoms: _161  and  _164
REMARK   70  A    between atoms: _164  and  _165
REMARK   71  A    between atoms: _168  and  _170
REMARK   72  A    between atoms: _170  and  _171
REMARK   73  A    between atoms: _170  and  _173
REMARK   74  A    between atoms: _176  and  _178
REMARK   75  A    between atoms: _178  and  _179
REMARK   76  A    between atoms: _178  and  _181
REMARK   77  A    between atoms: _181  and  _182
REMARK   78  A    between atoms: _186  and  _187
REMARK   79  A    between atoms: _192  and  _194
REMARK   80  A    between atoms: _194  and  _195
REMARK   81  A    between atoms: _194  and  _197
REMARK   82  A    between atoms: _197  and  _198
REMARK   83  A    between atoms: _202  and  _203
REMARK   84  A    between atoms: _208  and  _210
REMARK   85  A    between atoms: _210  and  _211
REMARK   86  A    between atoms: _210  and  _213
REMARK   87  A    between atoms: _216  and  _218
REMARK   88  A    between atoms: _218  and  _219
REMARK   89  A    between atoms: _218  and  _221
REMARK   90  A    between atoms: _221  and  _222
REMARK   91  A    between atoms: _227  and  _229
REMARK   92  A    between atoms: _229  and  _230
REMARK   93  A    between atoms: _229  and  _232
REMARK   94  A    between atoms: _232  and  _233
REMARK   95  A    between atoms: _236  and  _238
REMARK   96  A    between atoms: _238  and  _239
REMARK   97  A    between atoms: _238  and  _241
REMARK   98  A    between atoms: _241  and  _242
REMARK   99  A    between atoms: _245  and  _247
REMARK  100  A    between atoms: _247  and  _248
REMARK  101  A    between atoms: _250  and  _252
REMARK  102  A    between atoms: _252  and  _253
REMARK  103  A    between atoms: _252  and  _255
REMARK  104  A    between atoms: _255  and  _256
REMARK  105  A    between atoms: _256  and  _257
REMARK  106  A    between atoms: _257  and  _258
REMARK  107  A    between atoms: _267  and  _269
REMARK  108  A    between atoms: _269  and  _270
REMARK  109  A    between atoms: _269  and  _272
REMARK  110  A    between atoms: _272  and  _273
REMARK  111  A    between atoms: _278  and  _280
REMARK  112  A    between atoms: _280  and  _281
REMARK  113  A    between atoms: _280  and  _283
REMARK  114  A    between atoms: _283  and  _284
REMARK  115  A    between atoms: _284  and  _285
REMARK  116  A    between atoms: _285  and  _286
REMARK  117  A    between atoms: _295  and  _297
REMARK  118  A    between atoms: _297  and  _298
REMARK  119  A    between atoms: _297  and  _300
REMARK  120  A    between atoms: _300  and  _301
REMARK  121  A    between atoms: _304  and  _306
REMARK  122  A    between atoms: _306  and  _307
REMARK  123  A    between atoms: _306  and  _309
REMARK  124  A    between atoms: _309  and  _310
REMARK  125  A    between atoms: _313  and  _315
REMARK  126  A    between atoms: _315  and  _316
REMARK  127  A    between atoms: _315  and  _318
REMARK  128  A    between atoms: _318  and  _319
REMARK  129  A    between atoms: _322  and  _324
REMARK  130  A    between atoms: _324  and  _325
REMARK  131  A    between atoms: _324  and  _327
REMARK  132  A    between atoms: _327  and  _328
REMARK  133  A    between atoms: _331  and  _333
REMARK  134  A    between atoms: _333  and  _334
REMARK  135  A    between atoms: _336  and  _338
REMARK  136  A    between atoms: _338  and  _339
REMARK  137  A    between atoms: _342  and  _344
REMARK  138  A    between atoms: _344  and  _345
REMARK  139  A    between atoms: _344  and  _347
REMARK  140  A    between atoms: _347  and  _348
REMARK  141  A    between atoms: _351  and  _353
REMARK  142  A    between atoms: _353  and  _354
REMARK  143  A    between atoms: _353  and  _356
REMARK  144  A    between atoms: _356  and  _357
REMARK  145  A    between atoms: _360  and  _362
REMARK  146  A    between atoms: _362  and  _363
REMARK  147  A    between atoms: _362  and  _365
REMARK  148  A    between atoms: _365  and  _366
REMARK  149  A    between atoms: _369  and  _371
REMARK  150  A    between atoms: _371  and  _372
REMARK  151  A    between atoms: _371  and  _374
REMARK  152  A    between atoms: _377  and  _379
REMARK  153  A    between atoms: _379  and  _380
REMARK  154  A    between atoms: _379  and  _382
REMARK  155  A    between atoms: _383  and  _384
REMARK  156  A    between atoms: _384  and  _385
REMARK  157  A    between atoms: _385  and  _386
REMARK  158  A    between atoms: _390  and  _392
REMARK  159  A    between atoms: _392  and  _393
REMARK  160  A    between atoms: _392  and  _395
REMARK  161  A    between atoms: _395  and  _396
REMARK  162  A    between atoms: _396  and  _397
REMARK  163  A    between atoms: _399  and  _401
REMARK  164  A    between atoms: _401  and  _402
REMARK  165  A    between atoms: _401  and  _404
REMARK  166  A    between atoms: _404  and  _405
REMARK  167  A    between atoms: _408  and  _410
REMARK  168  A    between atoms: _410  and  _411
REMARK  169  A    between atoms: _413  and  _415
REMARK  170  A    between atoms: _415  and  _416
REMARK  171  A    between atoms: _418  and  _420
REMARK  172  A    between atoms: _420  and  _421
REMARK  173  A    between atoms: _420  and  _423
REMARK  174  A    between atoms: _423  and  _424
REMARK  175  A    between atoms: _427  and  _429
REMARK  176  A    between atoms: _429  and  _430
REMARK  177  A    between atoms: _432  and  _434
REMARK  178  A    between atoms: _434  and  _435
REMARK  179  A    between atoms: _437  and  _439
REMARK  180  A    between atoms: _439  and  _440
REMARK  181  A    between atoms: _439  and  _442
REMARK  182  A    between atoms: _442  and  _443
REMARK  183  A    between atoms: _449  and  _451
REMARK  184  A    between atoms: _451  and  _452
REMARK  185  A    between atoms: _451  and  _454
REMARK  186  A    between atoms: _454  and  _455
REMARK  187  A    between atoms: _458  and  _460
REMARK  188  A    between atoms: _460  and  _461
REMARK  189  A    between atoms: _460  and  _463
REMARK  190  A    between atoms: _466  and  _468
REMARK  191  A    between atoms: _468  and  _469
REMARK  192  A    between atoms: _468  and  _471
REMARK  193  A    between atoms: _471  and  _472
REMARK  194  A    between atoms: _475  and  _477
REMARK  195  A    between atoms: _477  and  _478
REMARK  196  A    between atoms: _477  and  _480
REMARK  197  A    between atoms: _480  and  _481
REMARK  198  A    between atoms: _485  and  _486
REMARK  199  A    between atoms: _491  and  _493
REMARK  200  A    between atoms: _493  and  _494
REMARK  201  A    between atoms: _493  and  _496
REMARK  202  A    between atoms: _499  and  _501
REMARK  203  A    between atoms: _501  and  _502
REMARK  204  A    between atoms: _501  and  _504
REMARK  205  A    between atoms: _504  and  _505
REMARK  206  A    between atoms: _510  and  _512
REMARK  207  A    between atoms: _512  and  _513
REMARK  208  A    between atoms: _512  and  _515
REMARK  209  A    between atoms: _515  and  _516
REMARK  210  A    between atoms: _519  and  _521
REMARK  211  A    between atoms: _521  and  _522
REMARK  212  A    between atoms: _521  and  _524
REMARK  213  A    between atoms: _524  and  _525
REMARK  214  A    between atoms: _528  and  _530
REMARK  215  A    between atoms: _530  and  _531
REMARK  216  A    between atoms: _533  and  _535
REMARK  217  A    between atoms: _535  and  _536
REMARK  218  A    between atoms: _535  and  _538
REMARK  219  A    between atoms: _538  and  _539
REMARK  220  A    between atoms: _539  and  _540
REMARK  221  A    between atoms: _540  and  _541
REMARK  222  A    between atoms: _550  and  _552
REMARK  223  A    between atoms: _552  and  _553
REMARK  224  A    between atoms: _552  and  _555
REMARK  225  A    between atoms: _555  and  _556
REMARK                            x       y       z     vdW  Elec       q    Type
REMARK                         _______ _______ _______ _____ _____    ______ ____
ROOT
ATOM      1  O   HOH     1      21.789  23.810   5.064  0.00  0.00    +0.000 OA
ENDROOT
TORSDOF 0
REMARK  Name = ../refined-set-2016/1izh/1izh_pocket.pdb
REMARK  225 active torsions:
REMARK  status: ('A' for Active; 'I' for Inactive)
REMARK    1  A    between atoms: _1  and  _3
REMARK    2  A    between atoms: _3  and  _4
REMARK    3  A    between atoms: _3  and  _6
REMARK    4  A    between atoms: _6  and  _7
REMARK    5  A    between atoms: _7  and  _8
REMARK    6  A    between atoms: _8  and  _9
REMARK    7  A    between atoms: _18  and  _20
REMARK    8  A    between atoms: _20  and  _21
REMARK    9  A    between atoms: _20  and  _23
REMARK   10  A    between atoms: _23  and  _24
REMARK   11  A    between atoms: _27  and  _29
REMARK   12  A    between atoms: _29  and  _30
REMARK   13  A    between atoms: _29  and  _32
REMARK   14  A    between atoms: _32  and  _33
REMARK   15  A    between atoms: _36  and  _38
REMARK   16  A    between atoms: _38  and  _39
REMARK   17  A    between atoms: _38  and  _41
REMARK   18  A    between atoms: _41  and  _42
REMARK   19  A    between atoms: _45  and  _47
REMARK   20  A    between atoms: _47  and  _48
REMARK   21  A    between atoms: _47  and  _50
REMARK   22  A    between atoms: _50  and  _51
REMARK   23  A    between atoms: _54  and  _56
REMARK   24  A    between atoms: _56  and  _57
REMARK   25  A    between atoms: _59  and  _61
REMARK   26  A    between atoms: _61  and  _62
REMARK   27  A    between atoms: _65  and  _67
REMARK   28  A    between atoms: _67  and  _68
REMARK   29  A    between atoms: _67  and  _70
REMARK   30  A    between atoms: _70  and  _71
REMARK   31  A    between atoms: _74  and  _76
REMARK   32  A    between atoms: _76  and  _77
REMARK   33  A    between atoms: _76  and  _79
REMARK   34  A    between atoms: _79  and  _80
REMARK   35  A    between atoms: _83  and  _85
REMARK   36  A    between atoms: _85  and  _86
REMARK   37  A    between atoms: _85  and  _88
REMARK   38  A    between atoms: _88  and  _89
REMARK   39  A    between atoms: _92  and  _94
REMARK   40  A    between atoms: _94  and  _95
REMARK   41  A    between atoms: _94  and  _97
REMARK   42  A    between atoms: _100  and  _102
REMARK   43  A    between atoms: _102  and  _103
REMARK   44  A    between atoms: _102  and  _105
REMARK   45  A    between atoms: _105  and  _106
REMARK   46  A    between atoms: _106  and  _107
REMARK   47  A    between atoms: _109  and  _111
REMARK   48  A    between atoms: _111  and  _112
REMARK   49  A    between atoms: _111  and  _114
REMARK   50  A    between atoms: _114  and  _115
REMARK   51  A    between atoms: _118  and  _120
REMARK   52  A    between atoms: _120  and  _121
REMARK   53  A    between atoms: _123  and  _125
REMARK   54  A    between atoms: _125  and  _126
REMARK   55  A    between atoms: _128  and  _130
REMARK   56  A    between atoms: _130  and  _131
REMARK   57  A    between atoms: _130  and  _133
REMARK   58  A    between atoms: _133  and  _134
REMARK   59  A    between atoms: _137  and  _139
REMARK   60  A    between atoms: _139  and  _140
REMARK   61  A    between atoms: _142  and  _144
REMARK   62  A    between atoms: _144  and  _145
REMARK   63  A    between atoms: _147  and  _149
REMARK   64  A    between atoms: _149  and  _150
REMARK   65  A    between atoms: _149  and  _152
REMARK   66  A    between atoms: _152  and  _153
REMARK   67  A    between atoms: _159  and  _161
REMARK   68  A    between atoms: _161  and  _162
REMARK   69  A    between atoms: _161  and  _164
REMARK   70  A    between atoms: _164  and  _165
REMARK   71  A    between atoms: _168  and  _170
REMARK   72  A    between atoms: _170  and  _171
REMARK   73  A    between atoms: _170  and  _173
REMARK   74  A    between atoms: _176  and  _178
REMARK   75  A    between atoms: _178  and  _179
REMARK   76  A    between atoms: _178  and  _181
REMARK   77  A    between atoms: _181  and  _182
REMARK   78  A    between atoms: _186  and  _187
REMARK   79  A    between atoms: _192  and  _194
REMARK   80  A    between atoms: _194  and  _195
REMARK   81  A    between atoms: _194  and  _197
REMARK   82  A    between atoms: _197  and  _198
REMARK   83  A    between atoms: _202  and  _203
REMARK   84  A    between atoms: _208  and  _210
REMARK   85  A    between atoms: _210  and  _211
REMARK   86  A    between atoms: _210  and  _213
REMARK   87  A    between atoms: _216  and  _218
REMARK   88  A    between atoms: _218  and  _219
REMARK   89  A    between atoms: _218  and  _221
REMARK   90  A    between atoms: _221  and  _222
REMARK   91  A    between atoms: _227  and  _229
REMARK   92  A    between atoms: _229  and  _230
REMARK   93  A    between atoms: _229  and  _232
REMARK   94  A    between atoms: _232  and  _233
REMARK   95  A    between atoms: _236  and  _238
REMARK   96  A    between atoms: _238  and  _239
REMARK   97  A    between atoms: _238  and  _241
REMARK   98  A    between atoms: _241  and  _242
REMARK   99  A    between atoms: _245  and  _247
REMARK  100  A    between atoms: _247  and  _248
REMARK  101  A    between atoms: _250  and  _252
REMARK  102  A    between atoms: _252  and  _253
REMARK  103  A    between atoms: _252  and  _255
REMARK  104  A    between atoms: _255  and  _256
REMARK  105  A    between atoms: _256  and  _257
REMARK  106  A    between atoms: _257  and  _258
REMARK  107  A    between atoms: _267  and  _269
REMARK  108  A    between atoms: _269  and  _270
REMARK  109  A    between atoms: _269  and  _272
REMARK  110  A    between atoms: _272  and  _273
REMARK  111  A    between atoms: _278  and  _280
REMARK  112  A    between atoms: _280  and  _281
REMARK  113  A    between atoms: _280  and  _283
REMARK  114  A    between atoms: _283  and  _284
REMARK  115  A    between atoms: _284  and  _285
REMARK  116  A    between atoms: _285  and  _286
REMARK  117  A    between atoms: _295  and  _297
REMARK  118  A    between atoms: _297  and  _298
REMARK  119  A    between atoms: _297  and  _300
REMARK  120  A    between atoms: _300  and  _301
REMARK  121  A    between atoms: _304  and  _306
REMARK  122  A    between atoms: _306  and  _307
REMARK  123  A    between atoms: _306  and  _309
REMARK  124  A    between atoms: _309  and  _310
REMARK  125  A    between atoms: _313  and  _315
REMARK  126  A    between atoms: _315  and  _316
REMARK  127  A    between atoms: _315  and  _318
REMARK  128  A    between atoms: _318  and  _319
REMARK  129  A    between atoms: _322  and  _324
REMARK  130  A    between atoms: _324  and  _325
REMARK  131  A    between atoms: _324  and  _327
REMARK  132  A    between atoms: _327  and  _328
REMARK  133  A    between atoms: _331  and  _333
REMARK  134  A    between atoms: _333  and  _334
REMARK  135  A    between atoms: _336  and  _338
REMARK  136  A    between atoms: _338  and  _339
REMARK  137  A    between atoms: _342  and  _344
REMARK  138  A    between atoms: _344  and  _345
REMARK  139  A    between atoms: _344  and  _347
REMARK  140  A    between atoms: _347  and  _348
REMARK  141  A    between atoms: _351  and  _353
REMARK  142  A    between atoms: _353  and  _354
REMARK  143  A    between atoms: _353  and  _356
REMARK  144  A    between atoms: _356  and  _357
REMARK  145  A    between atoms: _360  and  _362
REMARK  146  A    between atoms: _362  and  _363
REMARK  147  A    between atoms: _362  and  _365
REMARK  148  A    between atoms: _365  and  _366
REMARK  149  A    between atoms: _369  and  _371
REMARK  150  A    between atoms: _371  and  _372
REMARK  151  A    between atoms: _371  and  _374
REMARK  152  A    between atoms: _377  and  _379
REMARK  153  A    between atoms: _379  and  _380
REMARK  154  A    between atoms: _379  and  _382
REMARK  155  A    between atoms: _383  and  _384
REMARK  156  A    between atoms: _384  and  _385
REMARK  157  A    between atoms: _385  and  _386
REMARK  158  A    between atoms: _390  and  _392
REMARK  159  A    between atoms: _392  and  _393
REMARK  160  A    between atoms: _392  and  _395
REMARK  161  A    between atoms: _395  and  _396
REMARK  162  A    between atoms: _396  and  _397
REMARK  163  A    between atoms: _399  and  _401
REMARK  164  A    between atoms: _401  and  _402
REMARK  165  A    between atoms: _401  and  _404
REMARK  166  A    between atoms: _404  and  _405
REMARK  167  A    between atoms: _408  and  _410
REMARK  168  A    between atoms: _410  and  _411
REMARK  169  A    between atoms: _413  and  _415
REMARK  170  A    between atoms: _415  and  _416
REMARK  171  A    between atoms: _418  and  _420
REMARK  172  A    between atoms: _420  and  _421
REMARK  173  A    between atoms: _420  and  _423
REMARK  174  A    between atoms: _423  and  _424
REMARK  175  A    between atoms: _427  and  _429
REMARK  176  A    between atoms: _429  and  _430
REMARK  177  A    between atoms: _432  and  _434
REMARK  178  A    between atoms: _434  and  _435
REMARK  179  A    between atoms: _437  and  _439
REMARK  180  A    between atoms: _439  and  _440
REMARK  181  A    between atoms: _439  and  _442
REMARK  182  A    between atoms: _442  and  _443
REMARK  183  A    between atoms: _449  and  _451
REMARK  184  A    between atoms: _451  and  _452
REMARK  185  A    between atoms: _451  and  _454
REMARK  186  A    between atoms: _454  and  _455
REMARK  187  A    between atoms: _458  and  _460
REMARK  188  A    between atoms: _460  and  _461
REMARK  189  A    between atoms: _460  and  _463
REMARK  190  A    between atoms: _466  and  _468
REMARK  191  A    between atoms: _468  and  _469
REMARK  192  A    between atoms: _468  and  _471
REMARK  193  A    between atoms: _471  and  _472
REMARK  194  A    between atoms: _475  and  _477
REMARK  195  A    between atoms: _477  and  _478
REMARK  196  A    between atoms: _477  and  _480
REMARK  197  A    between atoms: _480  and  _481
REMARK  198  A    between atoms: _485  and  _486
REMARK  199  A    between atoms: _491  and  _493
REMARK  200  A    between atoms: _493  and  _494
REMARK  201  A    between atoms: _493  and  _496
REMARK  202  A    between atoms: _499  and  _501
REMARK  203  A    between atoms: _501  and  _502
REMARK  204  A    between atoms: _501  and  _504
REMARK  205  A    between atoms: _504  and  _505
REMARK  206  A    between atoms: _510  and  _512
REMARK  207  A    between atoms: _512  and  _513
REMARK  208  A    between atoms: _512  and  _515
REMARK  209  A    between atoms: _515  and  _516
REMARK  210  A    between atoms: _519  and  _521
REMARK  211  A    between atoms: _521  and  _522
REMARK  212  A    between atoms: _521  and  _524
REMARK  213  A    between atoms: _524  and  _525
REMARK  214  A    between atoms: _528  and  _530
REMARK  215  A    between atoms: _530  and  _531
REMARK  216  A    between atoms: _533  and  _535
REMARK  217  A    between atoms: _535  and  _536
REMARK  218  A    between atoms: _535  and  _538
REMARK  219  A    between atoms: _538  and  _539
REMARK  220  A    between atoms: _539  and  _540
REMARK  221  A    between atoms: _540  and  _541
REMARK  222  A    between atoms: _550  and  _552
REMARK  223  A    between atoms: _552  and  _553
REMARK  224  A    between atoms: _552  and  _555
REMARK  225  A    between atoms: _555  and  _556
REMARK                            x       y       z     vdW  Elec       q    Type
REMARK                         _______ _______ _______ _____ _____    ______ ____
ROOT
ATOM      1  O   HOH     1      20.368  21.934   6.388  0.00  0.00    +0.000 OA
ENDROOT
TORSDOF 0
REMARK  Name = ../refined-set-2016/1izh/1izh_pocket.pdb
REMARK  225 active torsions:
REMARK  status: ('A' for Active; 'I' for Inactive)
REMARK    1  A    between atoms: _1  and  _3
REMARK    2  A    between atoms: _3  and  _4
REMARK    3  A    between atoms: _3  and  _6
REMARK    4  A    between atoms: _6  and  _7
REMARK    5  A    between atoms: _7  and  _8
REMARK    6  A    between atoms: _8  and  _9
REMARK    7  A    between atoms: _18  and  _20
REMARK    8  A    between atoms: _20  and  _21
REMARK    9  A    between atoms: _20  and  _23
REMARK   10  A    between atoms: _23  and  _24
REMARK   11  A    between atoms: _27  and  _29
REMARK   12  A    between atoms: _29  and  _30
REMARK   13  A    between atoms: _29  and  _32
REMARK   14  A    between atoms: _32  and  _33
REMARK   15  A    between atoms: _36  and  _38
REMARK   16  A    between atoms: _38  and  _39
REMARK   17  A    between atoms: _38  and  _41
REMARK   18  A    between atoms: _41  and  _42
REMARK   19  A    between atoms: _45  and  _47
REMARK   20  A    between atoms: _47  and  _48
REMARK   21  A    between atoms: _47  and  _50
REMARK   22  A    between atoms: _50  and  _51
REMARK   23  A    between atoms: _54  and  _56
REMARK   24  A    between atoms: _56  and  _57
REMARK   25  A    between atoms: _59  and  _61
REMARK   26  A    between atoms: _61  and  _62
REMARK   27  A    between atoms: _65  and  _67
REMARK   28  A    between atoms: _67  and  _68
REMARK   29  A    between atoms: _67  and  _70
REMARK   30  A    between atoms: _70  and  _71
REMARK   31  A    between atoms: _74  and  _76
REMARK   32  A    between atoms: _76  and  _77
REMARK   33  A    between atoms: _76  and  _79
REMARK   34  A    between atoms: _79  and  _80
REMARK   35  A    between atoms: _83  and  _85
REMARK   36  A    between atoms: _85  and  _86
REMARK   37  A    between atoms: _85  and  _88
REMARK   38  A    between atoms: _88  and  _89
REMARK   39  A    between atoms: _92  and  _94
REMARK   40  A    between atoms: _94  and  _95
REMARK   41  A    between atoms: _94  and  _97
REMARK   42  A    between atoms: _100  and  _102
REMARK   43  A    between atoms: _102  and  _103
REMARK   44  A    between atoms: _102  and  _105
REMARK   45  A    between atoms: _105  and  _106
REMARK   46  A    between atoms: _106  and  _107
REMARK   47  A    between atoms: _109  and  _111
REMARK   48  A    between atoms: _111  and  _112
REMARK   49  A    between atoms: _111  and  _114
REMARK   50  A    between atoms: _114  and  _115
REMARK   51  A    between atoms: _118  and  _120
REMARK   52  A    between atoms: _120  and  _121
REMARK   53  A    between atoms: _123  and  _125
REMARK   54  A    between atoms: _125  and  _126
REMARK   55  A    between atoms: _128  and  _130
REMARK   56  A    between atoms: _130  and  _131
REMARK   57  A    between atoms: _130  and  _133
REMARK   58  A    between atoms: _133  and  _134
REMARK   59  A    between atoms: _137  and  _139
REMARK   60  A    between atoms: _139  and  _140
REMARK   61  A    between atoms: _142  and  _144
REMARK   62  A    between atoms: _144  and  _145
REMARK   63  A    between atoms: _147  and  _149
REMARK   64  A    between atoms: _149  and  _150
REMARK   65  A    between atoms: _149  and  _152
REMARK   66  A    between atoms: _152  and  _153
REMARK   67  A    between atoms: _159  and  _161
REMARK   68  A    between atoms: _161  and  _162
REMARK   69  A    between atoms: _161  and  _164
REMARK   70  A    between atoms: _164  and  _165
REMARK   71  A    between atoms: _168  and  _170
REMARK   72  A    between atoms: _170  and  _171
REMARK   73  A    between atoms: _170  and  _173
REMARK   74  A    between atoms: _176  and  _178
REMARK   75  A    between atoms: _178  and  _179
REMARK   76  A    between atoms: _178  and  _181
REMARK   77  A    between atoms: _181  and  _182
REMARK   78  A    between atoms: _186  and  _187
REMARK   79  A    between atoms: _192  and  _194
REMARK   80  A    between atoms: _194  and  _195
REMARK   81  A    between atoms: _194  and  _197
REMARK   82  A    between atoms: _197  and  _198
REMARK   83  A    between atoms: _202  and  _203
REMARK   84  A    between atoms: _208  and  _210
REMARK   85  A    between atoms: _210  and  _211
REMARK   86  A    between atoms: _210  and  _213
REMARK   87  A    between atoms: _216  and  _218
REMARK   88  A    between atoms: _218  and  _219
REMARK   89  A    between atoms: _218  and  _221
REMARK   90  A    between atoms: _221  and  _222
REMARK   91  A    between atoms: _227  and  _229
REMARK   92  A    between atoms: _229  and  _230
REMARK   93  A    between atoms: _229  and  _232
REMARK   94  A    between atoms: _232  and  _233
REMARK   95  A    between atoms: _236  and  _238
REMARK   96  A    between atoms: _238  and  _239
REMARK   97  A    between atoms: _238  and  _241
REMARK   98  A    between atoms: _241  and  _242
REMARK   99  A    between atoms: _245  and  _247
REMARK  100  A    between atoms: _247  and  _248
REMARK  101  A    between atoms: _250  and  _252
REMARK  102  A    between atoms: _252  and  _253
REMARK  103  A    between atoms: _252  and  _255
REMARK  104  A    between atoms: _255  and  _256
REMARK  105  A    between atoms: _256  and  _257
REMARK  106  A    between atoms: _257  and  _258
REMARK  107  A    between atoms: _267  and  _269
REMARK  108  A    between atoms: _269  and  _270
REMARK  109  A    between atoms: _269  and  _272
REMARK  110  A    between atoms: _272  and  _273
REMARK  111  A    between atoms: _278  and  _280
REMARK  112  A    between atoms: _280  and  _281
REMARK  113  A    between atoms: _280  and  _283
REMARK  114  A    between atoms: _283  and  _284
REMARK  115  A    between atoms: _284  and  _285
REMARK  116  A    between atoms: _285  and  _286
REMARK  117  A    between atoms: _295  and  _297
REMARK  118  A    between atoms: _297  and  _298
REMARK  119  A    between atoms: _297  and  _300
REMARK  120  A    between atoms: _300  and  _301
REMARK  121  A    between atoms: _304  and  _306
REMARK  122  A    between atoms: _306  and  _307
REMARK  123  A    between atoms: _306  and  _309
REMARK  124  A    between atoms: _309  and  _310
REMARK  125  A    between atoms: _313  and  _315
REMARK  126  A    between atoms: _315  and  _316
REMARK  127  A    between atoms: _315  and  _318
REMARK  128  A    between atoms: _318  and  _319
REMARK  129  A    between atoms: _322  and  _324
REMARK  130  A    between atoms: _324  and  _325
REMARK  131  A    between atoms: _324  and  _327
REMARK  132  A    between atoms: _327  and  _328
REMARK  133  A    between atoms: _331  and  _333
REMARK  134  A    between atoms: _333  and  _334
REMARK  135  A    between atoms: _336  and  _338
REMARK  136  A    between atoms: _338  and  _339
REMARK  137  A    between atoms: _342  and  _344
REMARK  138  A    between atoms: _344  and  _345
REMARK  139  A    between atoms: _344  and  _347
REMARK  140  A    between atoms: _347  and  _348
REMARK  141  A    between atoms: _351  and  _353
REMARK  142  A    between atoms: _353  and  _354
REMARK  143  A    between atoms: _353  and  _356
REMARK  144  A    between atoms: _356  and  _357
REMARK  145  A    between atoms: _360  and  _362
REMARK  146  A    between atoms: _362  and  _363
REMARK  147  A    between atoms: _362  and  _365
REMARK  148  A    between atoms: _365  and  _366
REMARK  149  A    between atoms: _369  and  _371
REMARK  150  A    between atoms: _371  and  _372
REMARK  151  A    between atoms: _371  and  _374
REMARK  152  A    between atoms: _377  and  _379
REMARK  153  A    between atoms: _379  and  _380
REMARK  154  A    between atoms: _379  and  _382
REMARK  155  A    between atoms: _383  and  _384
REMARK  156  A    between atoms: _384  and  _385
REMARK  157  A    between atoms: _385  and  _386
REMARK  158  A    between atoms: _390  and  _392
REMARK  159  A    between atoms: _392  and  _393
REMARK  160  A    between atoms: _392  and  _395
REMARK  161  A    between atoms: _395  and  _396
REMARK  162  A    between atoms: _396  and  _397
REMARK  163  A    between atoms: _399  and  _401
REMARK  164  A    between atoms: _401  and  _402
REMARK  165  A    between atoms: _401  and  _404
REMARK  166  A    between atoms: _404  and  _405
REMARK  167  A    between atoms: _408  and  _410
REMARK  168  A    between atoms: _410  and  _411
REMARK  169  A    between atoms: _413  and  _415
REMARK  170  A    between atoms: _415  and  _416
REMARK  171  A    between atoms: _418  and  _420
REMARK  172  A    between atoms: _420  and  _421
REMARK  173  A    between atoms: _420  and  _423
REMARK  174  A    between atoms: _423  and  _424
REMARK  175  A    between atoms: _427  and  _429
REMARK  176  A    between atoms: _429  and  _430
REMARK  177  A    between atoms: _432  and  _434
REMARK  178  A    between atoms: _434  and  _435
REMARK  179  A    between atoms: _437  and  _439
REMARK  180  A    between atoms: _439  and  _440
REMARK  181  A    between atoms: _439  and  _442
REMARK  182  A    between atoms: _442  and  _443
REMARK  183  A    between atoms: _449  and  _451
REMARK  184  A    between atoms: _451  and  _452
REMARK  185  A    between atoms: _451  and  _454
REMARK  186  A    between atoms: _454  and  _455
REMARK  187  A    between atoms: _458  and  _460
REMARK  188  A    between atoms: _460  and  _461
REMARK  189  A    between atoms: _460  and  _463
REMARK  190  A    between atoms: _466  and  _468
REMARK  191  A    between atoms: _468  and  _469
REMARK  192  A    between atoms: _468  and  _471
REMARK  193  A    between atoms: _471  and  _472
REMARK  194  A    between atoms: _475  and  _477
REMARK  195  A    between atoms: _477  and  _478
REMARK  196  A    between atoms: _477  and  _480
REMARK  197  A    between atoms: _480  and  _481
REMARK  198  A    between atoms: _485  and  _486
REMARK  199  A    between atoms: _491  and  _493
REMARK  200  A    between atoms: _493  and  _494
REMARK  201  A    between atoms: _493  and  _496
REMARK  202  A    between atoms: _499  and  _501
REMARK  203  A    between atoms: _501  and  _502
REMARK  204  A    between atoms: _501  and  _504
REMARK  205  A    between atoms: _504  and  _505
REMARK  206  A    between atoms: _510  and  _512
REMARK  207  A    between atoms: _512  and  _513
REMARK  208  A    between atoms: _512  and  _515
REMARK  209  A    between atoms: _515  and  _516
REMARK  210  A    between atoms: _519  and  _521
REMARK  211  A    between atoms: _521  and  _522
REMARK  212  A    between atoms: _521  and  _524
REMARK  213  A    between atoms: _524  and  _525
REMARK  214  A    between atoms: _528  and  _530
REMARK  215  A    between atoms: _530  and  _531
REMARK  216  A    between atoms: _533  and  _535
REMARK  217  A    between atoms: _535  and  _536
REMARK  218  A    between atoms: _535  and  _538
REMARK  219  A    between atoms: _538  and  _539
REMARK  220  A    between atoms: _539  and  _540
REMARK  221  A    between atoms: _540  and  _541
REMARK  222  A    between atoms: _550  and  _552
REMARK  223  A    between atoms: _552  and  _553
REMARK  224  A    between atoms: _552  and  _555
REMARK  225  A    between atoms: _555  and  _556
REMARK                            x       y       z     vdW  Elec       q    Type
REMARK                         _______ _______ _______ _____ _____    ______ ____
ROOT
ATOM      1  O   HOH     1      11.436  20.823   6.845  0.00  0.00    +0.000 OA
ENDROOT
TORSDOF 0
REMARK  Name = ../refined-set-2016/1izh/1izh_pocket.pdb
REMARK  225 active torsions:
REMARK  status: ('A' for Active; 'I' for Inactive)
REMARK    1  A    between atoms: _1  and  _3
REMARK    2  A    between atoms: _3  and  _4
REMARK    3  A    between atoms: _3  and  _6
REMARK    4  A    between atoms: _6  and  _7
REMARK    5  A    between atoms: _7  and  _8
REMARK    6  A    between atoms: _8  and  _9
REMARK    7  A    between atoms: _18  and  _20
REMARK    8  A    between atoms: _20  and  _21
REMARK    9  A    between atoms: _20  and  _23
REMARK   10  A    between atoms: _23  and  _24
REMARK   11  A    between atoms: _27  and  _29
REMARK   12  A    between atoms: _29  and  _30
REMARK   13  A    between atoms: _29  and  _32
REMARK   14  A    between atoms: _32  and  _33
REMARK   15  A    between atoms: _36  and  _38
REMARK   16  A    between atoms: _38  and  _39
REMARK   17  A    between atoms: _38  and  _41
REMARK   18  A    between atoms: _41  and  _42
REMARK   19  A    between atoms: _45  and  _47
REMARK   20  A    between atoms: _47  and  _48
REMARK   21  A    between atoms: _47  and  _50
REMARK   22  A    between atoms: _50  and  _51
REMARK   23  A    between atoms: _54  and  _56
REMARK   24  A    between atoms: _56  and  _57
REMARK   25  A    between atoms: _59  and  _61
REMARK   26  A    between atoms: _61  and  _62
REMARK   27  A    between atoms: _65  and  _67
REMARK   28  A    between atoms: _67  and  _68
REMARK   29  A    between atoms: _67  and  _70
REMARK   30  A    between atoms: _70  and  _71
REMARK   31  A    between atoms: _74  and  _76
REMARK   32  A    between atoms: _76  and  _77
REMARK   33  A    between atoms: _76  and  _79
REMARK   34  A    between atoms: _79  and  _80
REMARK   35  A    between atoms: _83  and  _85
REMARK   36  A    between atoms: _85  and  _86
REMARK   37  A    between atoms: _85  and  _88
REMARK   38  A    between atoms: _88  and  _89
REMARK   39  A    between atoms: _92  and  _94
REMARK   40  A    between atoms: _94  and  _95
REMARK   41  A    between atoms: _94  and  _97
REMARK   42  A    between atoms: _100  and  _102
REMARK   43  A    between atoms: _102  and  _103
REMARK   44  A    between atoms: _102  and  _105
REMARK   45  A    between atoms: _105  and  _106
REMARK   46  A    between atoms: _106  and  _107
REMARK   47  A    between atoms: _109  and  _111
REMARK   48  A    between atoms: _111  and  _112
REMARK   49  A    between atoms: _111  and  _114
REMARK   50  A    between atoms: _114  and  _115
REMARK   51  A    between atoms: _118  and  _120
REMARK   52  A    between atoms: _120  and  _121
REMARK   53  A    between atoms: _123  and  _125
REMARK   54  A    between atoms: _125  and  _126
REMARK   55  A    between atoms: _128  and  _130
REMARK   56  A    between atoms: _130  and  _131
REMARK   57  A    between atoms: _130  and  _133
REMARK   58  A    between atoms: _133  and  _134
REMARK   59  A    between atoms: _137  and  _139
REMARK   60  A    between atoms: _139  and  _140
REMARK   61  A    between atoms: _142  and  _144
REMARK   62  A    between atoms: _144  and  _145
REMARK   63  A    between atoms: _147  and  _149
REMARK   64  A    between atoms: _149  and  _150
REMARK   65  A    between atoms: _149  and  _152
REMARK   66  A    between atoms: _152  and  _153
REMARK   67  A    between atoms: _159  and  _161
REMARK   68  A    between atoms: _161  and  _162
REMARK   69  A    between atoms: _161  and  _164
REMARK   70  A    between atoms: _164  and  _165
REMARK   71  A    between atoms: _168  and  _170
REMARK   72  A    between atoms: _170  and  _171
REMARK   73  A    between atoms: _170  and  _173
REMARK   74  A    between atoms: _176  and  _178
REMARK   75  A    between atoms: _178  and  _179
REMARK   76  A    between atoms: _178  and  _181
REMARK   77  A    between atoms: _181  and  _182
REMARK   78  A    between atoms: _186  and  _187
REMARK   79  A    between atoms: _192  and  _194
REMARK   80  A    between atoms: _194  and  _195
REMARK   81  A    between atoms: _194  and  _197
REMARK   82  A    between atoms: _197  and  _198
REMARK   83  A    between atoms: _202  and  _203
REMARK   84  A    between atoms: _208  and  _210
REMARK   85  A    between atoms: _210  and  _211
REMARK   86  A    between atoms: _210  and  _213
REMARK   87  A    between atoms: _216  and  _218
REMARK   88  A    between atoms: _218  and  _219
REMARK   89  A    between atoms: _218  and  _221
REMARK   90  A    between atoms: _221  and  _222
REMARK   91  A    between atoms: _227  and  _229
REMARK   92  A    between atoms: _229  and  _230
REMARK   93  A    between atoms: _229  and  _232
REMARK   94  A    between atoms: _232  and  _233
REMARK   95  A    between atoms: _236  and  _238
REMARK   96  A    between atoms: _238  and  _239
REMARK   97  A    between atoms: _238  and  _241
REMARK   98  A    between atoms: _241  and  _242
REMARK   99  A    between atoms: _245  and  _247
REMARK  100  A    between atoms: _247  and  _248
REMARK  101  A    between atoms: _250  and  _252
REMARK  102  A    between atoms: _252  and  _253
REMARK  103  A    between atoms: _252  and  _255
REMARK  104  A    between atoms: _255  and  _256
REMARK  105  A    between atoms: _256  and  _257
REMARK  106  A    between atoms: _257  and  _258
REMARK  107  A    between atoms: _267  and  _269
REMARK  108  A    between atoms: _269  and  _270
REMARK  109  A    between atoms: _269  and  _272
REMARK  110  A    between atoms: _272  and  _273
REMARK  111  A    between atoms: _278  and  _280
REMARK  112  A    between atoms: _280  and  _281
REMARK  113  A    between atoms: _280  and  _283
REMARK  114  A    between atoms: _283  and  _284
REMARK  115  A    between atoms: _284  and  _285
REMARK  116  A    between atoms: _285  and  _286
REMARK  117  A    between atoms: _295  and  _297
REMARK  118  A    between atoms: _297  and  _298
REMARK  119  A    between atoms: _297  and  _300
REMARK  120  A    between atoms: _300  and  _301
REMARK  121  A    between atoms: _304  and  _306
REMARK  122  A    between atoms: _306  and  _307
REMARK  123  A    between atoms: _306  and  _309
REMARK  124  A    between atoms: _309  and  _310
REMARK  125  A    between atoms: _313  and  _315
REMARK  126  A    between atoms: _315  and  _316
REMARK  127  A    between atoms: _315  and  _318
REMARK  128  A    between atoms: _318  and  _319
REMARK  129  A    between atoms: _322  and  _324
REMARK  130  A    between atoms: _324  and  _325
REMARK  131  A    between atoms: _324  and  _327
REMARK  132  A    between atoms: _327  and  _328
REMARK  133  A    between atoms: _331  and  _333
REMARK  134  A    between atoms: _333  and  _334
REMARK  135  A    between atoms: _336  and  _338
REMARK  136  A    between atoms: _338  and  _339
REMARK  137  A    between atoms: _342  and  _344
REMARK  138  A    between atoms: _344  and  _345
REMARK  139  A    between atoms: _344  and  _347
REMARK  140  A    between atoms: _347  and  _348
REMARK  141  A    between atoms: _351  and  _353
REMARK  142  A    between atoms: _353  and  _354
REMARK  143  A    between atoms: _353  and  _356
REMARK  144  A    between atoms: _356  and  _357
REMARK  145  A    between atoms: _360  and  _362
REMARK  146  A    between atoms: _362  and  _363
REMARK  147  A    between atoms: _362  and  _365
REMARK  148  A    between atoms: _365  and  _366
REMARK  149  A    between atoms: _369  and  _371
REMARK  150  A    between atoms: _371  and  _372
REMARK  151  A    between atoms: _371  and  _374
REMARK  152  A    between atoms: _377  and  _379
REMARK  153  A    between atoms: _379  and  _380
REMARK  154  A    between atoms: _379  and  _382
REMARK  155  A    between atoms: _383  and  _384
REMARK  156  A    between atoms: _384  and  _385
REMARK  157  A    between atoms: _385  and  _386
REMARK  158  A    between atoms: _390  and  _392
REMARK  159  A    between atoms: _392  and  _393
REMARK  160  A    between atoms: _392  and  _395
REMARK  161  A    between atoms: _395  and  _396
REMARK  162  A    between atoms: _396  and  _397
REMARK  163  A    between atoms: _399  and  _401
REMARK  164  A    between atoms: _401  and  _402
REMARK  165  A    between atoms: _401  and  _404
REMARK  166  A    between atoms: _404  and  _405
REMARK  167  A    between atoms: _408  and  _410
REMARK  168  A    between atoms: _410  and  _411
REMARK  169  A    between atoms: _413  and  _415
REMARK  170  A    between atoms: _415  and  _416
REMARK  171  A    between atoms: _418  and  _420
REMARK  172  A    between atoms: _420  and  _421
REMARK  173  A    between atoms: _420  and  _423
REMARK  174  A    between atoms: _423  and  _424
REMARK  175  A    between atoms: _427  and  _429
REMARK  176  A    between atoms: _429  and  _430
REMARK  177  A    between atoms: _432  and  _434
REMARK  178  A    between atoms: _434  and  _435
REMARK  179  A    between atoms: _437  and  _439
REMARK  180  A    between atoms: _439  and  _440
REMARK  181  A    between atoms: _439  and  _442
REMARK  182  A    between atoms: _442  and  _443
REMARK  183  A    between atoms: _449  and  _451
REMARK  184  A    between atoms: _451  and  _452
REMARK  185  A    between atoms: _451  and  _454
REMARK  186  A    between atoms: _454  and  _455
REMARK  187  A    between atoms: _458  and  _460
REMARK  188  A    between atoms: _460  and  _461
REMARK  189  A    between atoms: _460  and  _463
REMARK  190  A    between atoms: _466  and  _468
REMARK  191  A    between atoms: _468  and  _469
REMARK  192  A    between atoms: _468  and  _471
REMARK  193  A    between atoms: _471  and  _472
REMARK  194  A    between atoms: _475  and  _477
REMARK  195  A    between atoms: _477  and  _478
REMARK  196  A    between atoms: _477  and  _480
REMARK  197  A    between atoms: _480  and  _481
REMARK  198  A    between atoms: _485  and  _486
REMARK  199  A    between atoms: _491  and  _493
REMARK  200  A    between atoms: _493  and  _494
REMARK  201  A    between atoms: _493  and  _496
REMARK  202  A    between atoms: _499  and  _501
REMARK  203  A    between atoms: _501  and  _502
REMARK  204  A    between atoms: _501  and  _504
REMARK  205  A    between atoms: _504  and  _505
REMARK  206  A    between atoms: _510  and  _512
REMARK  207  A    between atoms: _512  and  _513
REMARK  208  A    between atoms: _512  and  _515
REMARK  209  A    between atoms: _515  and  _516
REMARK  210  A    between atoms: _519  and  _521
REMARK  211  A    between atoms: _521  and  _522
REMARK  212  A    between atoms: _521  and  _524
REMARK  213  A    between atoms: _524  and  _525
REMARK  214  A    between atoms: _528  and  _530
REMARK  215  A    between atoms: _530  and  _531
REMARK  216  A    between atoms: _533  and  _535
REMARK  217  A    between atoms: _535  and  _536
REMARK  218  A    between atoms: _535  and  _538
REMARK  219  A    between atoms: _538  and  _539
REMARK  220  A    between atoms: _539  and  _540
REMARK  221  A    between atoms: _540  and  _541
REMARK  222  A    between atoms: _550  and  _552
REMARK  223  A    between atoms: _552  and  _553
REMARK  224  A    between atoms: _552  and  _555
REMARK  225  A    between atoms: _555  and  _556
REMARK                            x       y       z     vdW  Elec       q    Type
REMARK                         _______ _______ _______ _____ _____    ______ ____
ROOT
ATOM      1  O   HOH     1      19.419   7.408   4.232  0.00  0.00    +0.000 OA
ENDROOT
TORSDOF 0
REMARK  Name = ../refined-set-2016/1izh/1izh_pocket.pdb
REMARK  225 active torsions:
REMARK  status: ('A' for Active; 'I' for Inactive)
REMARK    1  A    between atoms: _1  and  _3
REMARK    2  A    between atoms: _3  and  _4
REMARK    3  A    between atoms: _3  and  _6
REMARK    4  A    between atoms: _6  and  _7
REMARK    5  A    between atoms: _7  and  _8
REMARK    6  A    between atoms: _8  and  _9
REMARK    7  A    between atoms: _18  and  _20
REMARK    8  A    between atoms: _20  and  _21
REMARK    9  A    between atoms: _20  and  _23
REMARK   10  A    between atoms: _23  and  _24
REMARK   11  A    between atoms: _27  and  _29
REMARK   12  A    between atoms: _29  and  _30
REMARK   13  A    between atoms: _29  and  _32
REMARK   14  A    between atoms: _32  and  _33
REMARK   15  A    between atoms: _36  and  _38
REMARK   16  A    between atoms: _38  and  _39
REMARK   17  A    between atoms: _38  and  _41
REMARK   18  A    between atoms: _41  and  _42
REMARK   19  A    between atoms: _45  and  _47
REMARK   20  A    between atoms: _47  and  _48
REMARK   21  A    between atoms: _47  and  _50
REMARK   22  A    between atoms: _50  and  _51
REMARK   23  A    between atoms: _54  and  _56
REMARK   24  A    between atoms: _56  and  _57
REMARK   25  A    between atoms: _59  and  _61
REMARK   26  A    between atoms: _61  and  _62
REMARK   27  A    between atoms: _65  and  _67
REMARK   28  A    between atoms: _67  and  _68
REMARK   29  A    between atoms: _67  and  _70
REMARK   30  A    between atoms: _70  and  _71
REMARK   31  A    between atoms: _74  and  _76
REMARK   32  A    between atoms: _76  and  _77
REMARK   33  A    between atoms: _76  and  _79
REMARK   34  A    between atoms: _79  and  _80
REMARK   35  A    between atoms: _83  and  _85
REMARK   36  A    between atoms: _85  and  _86
REMARK   37  A    between atoms: _85  and  _88
REMARK   38  A    between atoms: _88  and  _89
REMARK   39  A    between atoms: _92  and  _94
REMARK   40  A    between atoms: _94  and  _95
REMARK   41  A    between atoms: _94  and  _97
REMARK   42  A    between atoms: _100  and  _102
REMARK   43  A    between atoms: _102  and  _103
REMARK   44  A    between atoms: _102  and  _105
REMARK   45  A    between atoms: _105  and  _106
REMARK   46  A    between atoms: _106  and  _107
REMARK   47  A    between atoms: _109  and  _111
REMARK   48  A    between atoms: _111  and  _112
REMARK   49  A    between atoms: _111  and  _114
REMARK   50  A    between atoms: _114  and  _115
REMARK   51  A    between atoms: _118  and  _120
REMARK   52  A    between atoms: _120  and  _121
REMARK   53  A    between atoms: _123  and  _125
REMARK   54  A    between atoms: _125  and  _126
REMARK   55  A    between atoms: _128  and  _130
REMARK   56  A    between atoms: _130  and  _131
REMARK   57  A    between atoms: _130  and  _133
REMARK   58  A    between atoms: _133  and  _134
REMARK   59  A    between atoms: _137  and  _139
REMARK   60  A    between atoms: _139  and  _140
REMARK   61  A    between atoms: _142  and  _144
REMARK   62  A    between atoms: _144  and  _145
REMARK   63  A    between atoms: _147  and  _149
REMARK   64  A    between atoms: _149  and  _150
REMARK   65  A    between atoms: _149  and  _152
REMARK   66  A    between atoms: _152  and  _153
REMARK   67  A    between atoms: _159  and  _161
REMARK   68  A    between atoms: _161  and  _162
REMARK   69  A    between atoms: _161  and  _164
REMARK   70  A    between atoms: _164  and  _165
REMARK   71  A    between atoms: _168  and  _170
REMARK   72  A    between atoms: _170  and  _171
REMARK   73  A    between atoms: _170  and  _173
REMARK   74  A    between atoms: _176  and  _178
REMARK   75  A    between atoms: _178  and  _179
REMARK   76  A    between atoms: _178  and  _181
REMARK   77  A    between atoms: _181  and  _182
REMARK   78  A    between atoms: _186  and  _187
REMARK   79  A    between atoms: _192  and  _194
REMARK   80  A    between atoms: _194  and  _195
REMARK   81  A    between atoms: _194  and  _197
REMARK   82  A    between atoms: _197  and  _198
REMARK   83  A    between atoms: _202  and  _203
REMARK   84  A    between atoms: _208  and  _210
REMARK   85  A    between atoms: _210  and  _211
REMARK   86  A    between atoms: _210  and  _213
REMARK   87  A    between atoms: _216  and  _218
REMARK   88  A    between atoms: _218  and  _219
REMARK   89  A    between atoms: _218  and  _221
REMARK   90  A    between atoms: _221  and  _222
REMARK   91  A    between atoms: _227  and  _229
REMARK   92  A    between atoms: _229  and  _230
REMARK   93  A    between atoms: _229  and  _232
REMARK   94  A    between atoms: _232  and  _233
REMARK   95  A    between atoms: _236  and  _238
REMARK   96  A    between atoms: _238  and  _239
REMARK   97  A    between atoms: _238  and  _241
REMARK   98  A    between atoms: _241  and  _242
REMARK   99  A    between atoms: _245  and  _247
REMARK  100  A    between atoms: _247  and  _248
REMARK  101  A    between atoms: _250  and  _252
REMARK  102  A    between atoms: _252  and  _253
REMARK  103  A    between atoms: _252  and  _255
REMARK  104  A    between atoms: _255  and  _256
REMARK  105  A    between atoms: _256  and  _257
REMARK  106  A    between atoms: _257  and  _258
REMARK  107  A    between atoms: _267  and  _269
REMARK  108  A    between atoms: _269  and  _270
REMARK  109  A    between atoms: _269  and  _272
REMARK  110  A    between atoms: _272  and  _273
REMARK  111  A    between atoms: _278  and  _280
REMARK  112  A    between atoms: _280  and  _281
REMARK  113  A    between atoms: _280  and  _283
REMARK  114  A    between atoms: _283  and  _284
REMARK  115  A    between atoms: _284  and  _285
REMARK  116  A    between atoms: _285  and  _286
REMARK  117  A    between atoms: _295  and  _297
REMARK  118  A    between atoms: _297  and  _298
REMARK  119  A    between atoms: _297  and  _300
REMARK  120  A    between atoms: _300  and  _301
REMARK  121  A    between atoms: _304  and  _306
REMARK  122  A    between atoms: _306  and  _307
REMARK  123  A    between atoms: _306  and  _309
REMARK  124  A    between atoms: _309  and  _310
REMARK  125  A    between atoms: _313  and  _315
REMARK  126  A    between atoms: _315  and  _316
REMARK  127  A    between atoms: _315  and  _318
REMARK  128  A    between atoms: _318  and  _319
REMARK  129  A    between atoms: _322  and  _324
REMARK  130  A    between atoms: _324  and  _325
REMARK  131  A    between atoms: _324  and  _327
REMARK  132  A    between atoms: _327  and  _328
REMARK  133  A    between atoms: _331  and  _333
REMARK  134  A    between atoms: _333  and  _334
REMARK  135  A    between atoms: _336  and  _338
REMARK  136  A    between atoms: _338  and  _339
REMARK  137  A    between atoms: _342  and  _344
REMARK  138  A    between atoms: _344  and  _345
REMARK  139  A    between atoms: _344  and  _347
REMARK  140  A    between atoms: _347  and  _348
REMARK  141  A    between atoms: _351  and  _353
REMARK  142  A    between atoms: _353  and  _354
REMARK  143  A    between atoms: _353  and  _356
REMARK  144  A    between atoms: _356  and  _357
REMARK  145  A    between atoms: _360  and  _362
REMARK  146  A    between atoms: _362  and  _363
REMARK  147  A    between atoms: _362  and  _365
REMARK  148  A    between atoms: _365  and  _366
REMARK  149  A    between atoms: _369  and  _371
REMARK  150  A    between atoms: _371  and  _372
REMARK  151  A    between atoms: _371  and  _374
REMARK  152  A    between atoms: _377  and  _379
REMARK  153  A    between atoms: _379  and  _380
REMARK  154  A    between atoms: _379  and  _382
REMARK  155  A    between atoms: _383  and  _384
REMARK  156  A    between atoms: _384  and  _385
REMARK  157  A    between atoms: _385  and  _386
REMARK  158  A    between atoms: _390  and  _392
REMARK  159  A    between atoms: _392  and  _393
REMARK  160  A    between atoms: _392  and  _395
REMARK  161  A    between atoms: _395  and  _396
REMARK  162  A    between atoms: _396  and  _397
REMARK  163  A    between atoms: _399  and  _401
REMARK  164  A    between atoms: _401  and  _402
REMARK  165  A    between atoms: _401  and  _404
REMARK  166  A    between atoms: _404  and  _405
REMARK  167  A    between atoms: _408  and  _410
REMARK  168  A    between atoms: _410  and  _411
REMARK  169  A    between atoms: _413  and  _415
REMARK  170  A    between atoms: _415  and  _416
REMARK  171  A    between atoms: _418  and  _420
REMARK  172  A    between atoms: _420  and  _421
REMARK  173  A    between atoms: _420  and  _423
REMARK  174  A    between atoms: _423  and  _424
REMARK  175  A    between atoms: _427  and  _429
REMARK  176  A    between atoms: _429  and  _430
REMARK  177  A    between atoms: _432  and  _434
REMARK  178  A    between atoms: _434  and  _435
REMARK  179  A    between atoms: _437  and  _439
REMARK  180  A    between atoms: _439  and  _440
REMARK  181  A    between atoms: _439  and  _442
REMARK  182  A    between atoms: _442  and  _443
REMARK  183  A    between atoms: _449  and  _451
REMARK  184  A    between atoms: _451  and  _452
REMARK  185  A    between atoms: _451  and  _454
REMARK  186  A    between atoms: _454  and  _455
REMARK  187  A    between atoms: _458  and  _460
REMARK  188  A    between atoms: _460  and  _461
REMARK  189  A    between atoms: _460  and  _463
REMARK  190  A    between atoms: _466  and  _468
REMARK  191  A    between atoms: _468  and  _469
REMARK  192  A    between atoms: _468  and  _471
REMARK  193  A    between atoms: _471  and  _472
REMARK  194  A    between atoms: _475  and  _477
REMARK  195  A    between atoms: _477  and  _478
REMARK  196  A    between atoms: _477  and  _480
REMARK  197  A    between atoms: _480  and  _481
REMARK  198  A    between atoms: _485  and  _486
REMARK  199  A    between atoms: _491  and  _493
REMARK  200  A    between atoms: _493  and  _494
REMARK  201  A    between atoms: _493  and  _496
REMARK  202  A    between atoms: _499  and  _501
REMARK  203  A    between atoms: _501  and  _502
REMARK  204  A    between atoms: _501  and  _504
REMARK  205  A    between atoms: _504  and  _505
REMARK  206  A    between atoms: _510  and  _512
REMARK  207  A    between atoms: _512  and  _513
REMARK  208  A    between atoms: _512  and  _515
REMARK  209  A    between atoms: _515  and  _516
REMARK  210  A    between atoms: _519  and  _521
REMARK  211  A    between atoms: _521  and  _522
REMARK  212  A    between atoms: _521  and  _524
REMARK  213  A    between atoms: _524  and  _525
REMARK  214  A    between atoms: _528  and  _530
REMARK  215  A    between atoms: _530  and  _531
REMARK  216  A    between atoms: _533  and  _535
REMARK  217  A    between atoms: _535  and  _536
REMARK  218  A    between atoms: _535  and  _538
REMARK  219  A    between atoms: _538  and  _539
REMARK  220  A    between atoms: _539  and  _540
REMARK  221  A    between atoms: _540  and  _541
REMARK  222  A    between atoms: _550  and  _552
REMARK  223  A    between atoms: _552  and  _553
REMARK  224  A    between atoms: _552  and  _555
REMARK  225  A    between atoms: _555  and  _556
REMARK                            x       y       z     vdW  Elec       q    Type
REMARK                         _______ _______ _______ _____ _____    ______ ____
ROOT
ATOM      1  O   HOH     1      23.653  15.557   1.603  0.00  0.00    +0.000 OA
ENDROOT
TORSDOF 0
REMARK  Name = ../refined-set-2016/1izh/1izh_pocket.pdb
REMARK  225 active torsions:
REMARK  status: ('A' for Active; 'I' for Inactive)
REMARK    1  A    between atoms: _1  and  _3
REMARK    2  A    between atoms: _3  and  _4
REMARK    3  A    between atoms: _3  and  _6
REMARK    4  A    between atoms: _6  and  _7
REMARK    5  A    between atoms: _7  and  _8
REMARK    6  A    between atoms: _8  and  _9
REMARK    7  A    between atoms: _18  and  _20
REMARK    8  A    between atoms: _20  and  _21
REMARK    9  A    between atoms: _20  and  _23
REMARK   10  A    between atoms: _23  and  _24
REMARK   11  A    between atoms: _27  and  _29
REMARK   12  A    between atoms: _29  and  _30
REMARK   13  A    between atoms: _29  and  _32
REMARK   14  A    between atoms: _32  and  _33
REMARK   15  A    between atoms: _36  and  _38
REMARK   16  A    between atoms: _38  and  _39
REMARK   17  A    between atoms: _38  and  _41
REMARK   18  A    between atoms: _41  and  _42
REMARK   19  A    between atoms: _45  and  _47
REMARK   20  A    between atoms: _47  and  _48
REMARK   21  A    between atoms: _47  and  _50
REMARK   22  A    between atoms: _50  and  _51
REMARK   23  A    between atoms: _54  and  _56
REMARK   24  A    between atoms: _56  and  _57
REMARK   25  A    between atoms: _59  and  _61
REMARK   26  A    between atoms: _61  and  _62
REMARK   27  A    between atoms: _65  and  _67
REMARK   28  A    between atoms: _67  and  _68
REMARK   29  A    between atoms: _67  and  _70
REMARK   30  A    between atoms: _70  and  _71
REMARK   31  A    between atoms: _74  and  _76
REMARK   32  A    between atoms: _76  and  _77
REMARK   33  A    between atoms: _76  and  _79
REMARK   34  A    between atoms: _79  and  _80
REMARK   35  A    between atoms: _83  and  _85
REMARK   36  A    between atoms: _85  and  _86
REMARK   37  A    between atoms: _85  and  _88
REMARK   38  A    between atoms: _88  and  _89
REMARK   39  A    between atoms: _92  and  _94
REMARK   40  A    between atoms: _94  and  _95
REMARK   41  A    between atoms: _94  and  _97
REMARK   42  A    between atoms: _100  and  _102
REMARK   43  A    between atoms: _102  and  _103
REMARK   44  A    between atoms: _102  and  _105
REMARK   45  A    between atoms: _105  and  _106
REMARK   46  A    between atoms: _106  and  _107
REMARK   47  A    between atoms: _109  and  _111
REMARK   48  A    between atoms: _111  and  _112
REMARK   49  A    between atoms: _111  and  _114
REMARK   50  A    between atoms: _114  and  _115
REMARK   51  A    between atoms: _118  and  _120
REMARK   52  A    between atoms: _120  and  _121
REMARK   53  A    between atoms: _123  and  _125
REMARK   54  A    between atoms: _125  and  _126
REMARK   55  A    between atoms: _128  and  _130
REMARK   56  A    between atoms: _130  and  _131
REMARK   57  A    between atoms: _130  and  _133
REMARK   58  A    between atoms: _133  and  _134
REMARK   59  A    between atoms: _137  and  _139
REMARK   60  A    between atoms: _139  and  _140
REMARK   61  A    between atoms: _142  and  _144
REMARK   62  A    between atoms: _144  and  _145
REMARK   63  A    between atoms: _147  and  _149
REMARK   64  A    between atoms: _149  and  _150
REMARK   65  A    between atoms: _149  and  _152
REMARK   66  A    between atoms: _152  and  _153
REMARK   67  A    between atoms: _159  and  _161
REMARK   68  A    between atoms: _161  and  _162
REMARK   69  A    between atoms: _161  and  _164
REMARK   70  A    between atoms: _164  and  _165
REMARK   71  A    between atoms: _168  and  _170
REMARK   72  A    between atoms: _170  and  _171
REMARK   73  A    between atoms: _170  and  _173
REMARK   74  A    between atoms: _176  and  _178
REMARK   75  A    between atoms: _178  and  _179
REMARK   76  A    between atoms: _178  and  _181
REMARK   77  A    between atoms: _181  and  _182
REMARK   78  A    between atoms: _186  and  _187
REMARK   79  A    between atoms: _192  and  _194
REMARK   80  A    between atoms: _194  and  _195
REMARK   81  A    between atoms: _194  and  _197
REMARK   82  A    between atoms: _197  and  _198
REMARK   83  A    between atoms: _202  and  _203
REMARK   84  A    between atoms: _208  and  _210
REMARK   85  A    between atoms: _210  and  _211
REMARK   86  A    between atoms: _210  and  _213
REMARK   87  A    between atoms: _216  and  _218
REMARK   88  A    between atoms: _218  and  _219
REMARK   89  A    between atoms: _218  and  _221
REMARK   90  A    between atoms: _221  and  _222
REMARK   91  A    between atoms: _227  and  _229
REMARK   92  A    between atoms: _229  and  _230
REMARK   93  A    between atoms: _229  and  _232
REMARK   94  A    between atoms: _232  and  _233
REMARK   95  A    between atoms: _236  and  _238
REMARK   96  A    between atoms: _238  and  _239
REMARK   97  A    between atoms: _238  and  _241
REMARK   98  A    between atoms: _241  and  _242
REMARK   99  A    between atoms: _245  and  _247
REMARK  100  A    between atoms: _247  and  _248
REMARK  101  A    between atoms: _250  and  _252
REMARK  102  A    between atoms: _252  and  _253
REMARK  103  A    between atoms: _252  and  _255
REMARK  104  A    between atoms: _255  and  _256
REMARK  105  A    between atoms: _256  and  _257
REMARK  106  A    between atoms: _257  and  _258
REMARK  107  A    between atoms: _267  and  _269
REMARK  108  A    between atoms: _269  and  _270
REMARK  109  A    between atoms: _269  and  _272
REMARK  110  A    between atoms: _272  and  _273
REMARK  111  A    between atoms: _278  and  _280
REMARK  112  A    between atoms: _280  and  _281
REMARK  113  A    between atoms: _280  and  _283
REMARK  114  A    between atoms: _283  and  _284
REMARK  115  A    between atoms: _284  and  _285
REMARK  116  A    between atoms: _285  and  _286
REMARK  117  A    between atoms: _295  and  _297
REMARK  118  A    between atoms: _297  and  _298
REMARK  119  A    between atoms: _297  and  _300
REMARK  120  A    between atoms: _300  and  _301
REMARK  121  A    between atoms: _304  and  _306
REMARK  122  A    between atoms: _306  and  _307
REMARK  123  A    between atoms: _306  and  _309
REMARK  124  A    between atoms: _309  and  _310
REMARK  125  A    between atoms: _313  and  _315
REMARK  126  A    between atoms: _315  and  _316
REMARK  127  A    between atoms: _315  and  _318
REMARK  128  A    between atoms: _318  and  _319
REMARK  129  A    between atoms: _322  and  _324
REMARK  130  A    between atoms: _324  and  _325
REMARK  131  A    between atoms: _324  and  _327
REMARK  132  A    between atoms: _327  and  _328
REMARK  133  A    between atoms: _331  and  _333
REMARK  134  A    between atoms: _333  and  _334
REMARK  135  A    between atoms: _336  and  _338
REMARK  136  A    between atoms: _338  and  _339
REMARK  137  A    between atoms: _342  and  _344
REMARK  138  A    between atoms: _344  and  _345
REMARK  139  A    between atoms: _344  and  _347
REMARK  140  A    between atoms: _347  and  _348
REMARK  141  A    between atoms: _351  and  _353
REMARK  142  A    between atoms: _353  and  _354
REMARK  143  A    between atoms: _353  and  _356
REMARK  144  A    between atoms: _356  and  _357
REMARK  145  A    between atoms: _360  and  _362
REMARK  146  A    between atoms: _362  and  _363
REMARK  147  A    between atoms: _362  and  _365
REMARK  148  A    between atoms: _365  and  _366
REMARK  149  A    between atoms: _369  and  _371
REMARK  150  A    between atoms: _371  and  _372
REMARK  151  A    between atoms: _371  and  _374
REMARK  152  A    between atoms: _377  and  _379
REMARK  153  A    between atoms: _379  and  _380
REMARK  154  A    between atoms: _379  and  _382
REMARK  155  A    between atoms: _383  and  _384
REMARK  156  A    between atoms: _384  and  _385
REMARK  157  A    between atoms: _385  and  _386
REMARK  158  A    between atoms: _390  and  _392
REMARK  159  A    between atoms: _392  and  _393
REMARK  160  A    between atoms: _392  and  _395
REMARK  161  A    between atoms: _395  and  _396
REMARK  162  A    between atoms: _396  and  _397
REMARK  163  A    between atoms: _399  and  _401
REMARK  164  A    between atoms: _401  and  _402
REMARK  165  A    between atoms: _401  and  _404
REMARK  166  A    between atoms: _404  and  _405
REMARK  167  A    between atoms: _408  and  _410
REMARK  168  A    between atoms: _410  and  _411
REMARK  169  A    between atoms: _413  and  _415
REMARK  170  A    between atoms: _415  and  _416
REMARK  171  A    between atoms: _418  and  _420
REMARK  172  A    between atoms: _420  and  _421
REMARK  173  A    between atoms: _420  and  _423
REMARK  174  A    between atoms: _423  and  _424
REMARK  175  A    between atoms: _427  and  _429
REMARK  176  A    between atoms: _429  and  _430
REMARK  177  A    between atoms: _432  and  _434
REMARK  178  A    between atoms: _434  and  _435
REMARK  179  A    between atoms: _437  and  _439
REMARK  180  A    between atoms: _439  and  _440
REMARK  181  A    between atoms: _439  and  _442
REMARK  182  A    between atoms: _442  and  _443
REMARK  183  A    between atoms: _449  and  _451
REMARK  184  A    between atoms: _451  and  _452
REMARK  185  A    between atoms: _451  and  _454
REMARK  186  A    between atoms: _454  and  _455
REMARK  187  A    between atoms: _458  and  _460
REMARK  188  A    between atoms: _460  and  _461
REMARK  189  A    between atoms: _460  and  _463
REMARK  190  A    between atoms: _466  and  _468
REMARK  191  A    between atoms: _468  and  _469
REMARK  192  A    between atoms: _468  and  _471
REMARK  193  A    between atoms: _471  and  _472
REMARK  194  A    between atoms: _475  and  _477
REMARK  195  A    between atoms: _477  and  _478
REMARK  196  A    between atoms: _477  and  _480
REMARK  197  A    between atoms: _480  and  _481
REMARK  198  A    between atoms: _485  and  _486
REMARK  199  A    between atoms: _491  and  _493
REMARK  200  A    between atoms: _493  and  _494
REMARK  201  A    between atoms: _493  and  _496
REMARK  202  A    between atoms: _499  and  _501
REMARK  203  A    between atoms: _501  and  _502
REMARK  204  A    between atoms: _501  and  _504
REMARK  205  A    between atoms: _504  and  _505
REMARK  206  A    between atoms: _510  and  _512
REMARK  207  A    between atoms: _512  and  _513
REMARK  208  A    between atoms: _512  and  _515
REMARK  209  A    between atoms: _515  and  _516
REMARK  210  A    between atoms: _519  and  _521
REMARK  211  A    between atoms: _521  and  _522
REMARK  212  A    between atoms: _521  and  _524
REMARK  213  A    between atoms: _524  and  _525
REMARK  214  A    between atoms: _528  and  _530
REMARK  215  A    between atoms: _530  and  _531
REMARK  216  A    between atoms: _533  and  _535
REMARK  217  A    between atoms: _535  and  _536
REMARK  218  A    between atoms: _535  and  _538
REMARK  219  A    between atoms: _538  and  _539
REMARK  220  A    between atoms: _539  and  _540
REMARK  221  A    between atoms: _540  and  _541
REMARK  222  A    between atoms: _550  and  _552
REMARK  223  A    between atoms: _552  and  _553
REMARK  224  A    between atoms: _552  and  _555
REMARK  225  A    between atoms: _555  and  _556
REMARK                            x       y       z     vdW  Elec       q    Type
REMARK                         _______ _______ _______ _____ _____    ______ ____
ROOT
ATOM      1  O   HOH     1      12.118  15.047  13.336  0.00  0.00    +0.000 OA
ENDROOT
TORSDOF 0
REMARK  Name = ../refined-set-2016/1izh/1izh_pocket.pdb
REMARK  225 active torsions:
REMARK  status: ('A' for Active; 'I' for Inactive)
REMARK    1  A    between atoms: _1  and  _3
REMARK    2  A    between atoms: _3  and  _4
REMARK    3  A    between atoms: _3  and  _6
REMARK    4  A    between atoms: _6  and  _7
REMARK    5  A    between atoms: _7  and  _8
REMARK    6  A    between atoms: _8  and  _9
REMARK    7  A    between atoms: _18  and  _20
REMARK    8  A    between atoms: _20  and  _21
REMARK    9  A    between atoms: _20  and  _23
REMARK   10  A    between atoms: _23  and  _24
REMARK   11  A    between atoms: _27  and  _29
REMARK   12  A    between atoms: _29  and  _30
REMARK   13  A    between atoms: _29  and  _32
REMARK   14  A    between atoms: _32  and  _33
REMARK   15  A    between atoms: _36  and  _38
REMARK   16  A    between atoms: _38  and  _39
REMARK   17  A    between atoms: _38  and  _41
REMARK   18  A    between atoms: _41  and  _42
REMARK   19  A    between atoms: _45  and  _47
REMARK   20  A    between atoms: _47  and  _48
REMARK   21  A    between atoms: _47  and  _50
REMARK   22  A    between atoms: _50  and  _51
REMARK   23  A    between atoms: _54  and  _56
REMARK   24  A    between atoms: _56  and  _57
REMARK   25  A    between atoms: _59  and  _61
REMARK   26  A    between atoms: _61  and  _62
REMARK   27  A    between atoms: _65  and  _67
REMARK   28  A    between atoms: _67  and  _68
REMARK   29  A    between atoms: _67  and  _70
REMARK   30  A    between atoms: _70  and  _71
REMARK   31  A    between atoms: _74  and  _76
REMARK   32  A    between atoms: _76  and  _77
REMARK   33  A    between atoms: _76  and  _79
REMARK   34  A    between atoms: _79  and  _80
REMARK   35  A    between atoms: _83  and  _85
REMARK   36  A    between atoms: _85  and  _86
REMARK   37  A    between atoms: _85  and  _88
REMARK   38  A    between atoms: _88  and  _89
REMARK   39  A    between atoms: _92  and  _94
REMARK   40  A    between atoms: _94  and  _95
REMARK   41  A    between atoms: _94  and  _97
REMARK   42  A    between atoms: _100  and  _102
REMARK   43  A    between atoms: _102  and  _103
REMARK   44  A    between atoms: _102  and  _105
REMARK   45  A    between atoms: _105  and  _106
REMARK   46  A    between atoms: _106  and  _107
REMARK   47  A    between atoms: _109  and  _111
REMARK   48  A    between atoms: _111  and  _112
REMARK   49  A    between atoms: _111  and  _114
REMARK   50  A    between atoms: _114  and  _115
REMARK   51  A    between atoms: _118  and  _120
REMARK   52  A    between atoms: _120  and  _121
REMARK   53  A    between atoms: _123  and  _125
REMARK   54  A    between atoms: _125  and  _126
REMARK   55  A    between atoms: _128  and  _130
REMARK   56  A    between atoms: _130  and  _131
REMARK   57  A    between atoms: _130  and  _133
REMARK   58  A    between atoms: _133  and  _134
REMARK   59  A    between atoms: _137  and  _139
REMARK   60  A    between atoms: _139  and  _140
REMARK   61  A    between atoms: _142  and  _144
REMARK   62  A    between atoms: _144  and  _145
REMARK   63  A    between atoms: _147  and  _149
REMARK   64  A    between atoms: _149  and  _150
REMARK   65  A    between atoms: _149  and  _152
REMARK   66  A    between atoms: _152  and  _153
REMARK   67  A    between atoms: _159  and  _161
REMARK   68  A    between atoms: _161  and  _162
REMARK   69  A    between atoms: _161  and  _164
REMARK   70  A    between atoms: _164  and  _165
REMARK   71  A    between atoms: _168  and  _170
REMARK   72  A    between atoms: _170  and  _171
REMARK   73  A    between atoms: _170  and  _173
REMARK   74  A    between atoms: _176  and  _178
REMARK   75  A    between atoms: _178  and  _179
REMARK   76  A    between atoms: _178  and  _181
REMARK   77  A    between atoms: _181  and  _182
REMARK   78  A    between atoms: _186  and  _187
REMARK   79  A    between atoms: _192  and  _194
REMARK   80  A    between atoms: _194  and  _195
REMARK   81  A    between atoms: _194  and  _197
REMARK   82  A    between atoms: _197  and  _198
REMARK   83  A    between atoms: _202  and  _203
REMARK   84  A    between atoms: _208  and  _210
REMARK   85  A    between atoms: _210  and  _211
REMARK   86  A    between atoms: _210  and  _213
REMARK   87  A    between atoms: _216  and  _218
REMARK   88  A    between atoms: _218  and  _219
REMARK   89  A    between atoms: _218  and  _221
REMARK   90  A    between atoms: _221  and  _222
REMARK   91  A    between atoms: _227  and  _229
REMARK   92  A    between atoms: _229  and  _230
REMARK   93  A    between atoms: _229  and  _232
REMARK   94  A    between atoms: _232  and  _233
REMARK   95  A    between atoms: _236  and  _238
REMARK   96  A    between atoms: _238  and  _239
REMARK   97  A    between atoms: _238  and  _241
REMARK   98  A    between atoms: _241  and  _242
REMARK   99  A    between atoms: _245  and  _247
REMARK  100  A    between atoms: _247  and  _248
REMARK  101  A    between atoms: _250  and  _252
REMARK  102  A    between atoms: _252  and  _253
REMARK  103  A    between atoms: _252  and  _255
REMARK  104  A    between atoms: _255  and  _256
REMARK  105  A    between atoms: _256  and  _257
REMARK  106  A    between atoms: _257  and  _258
REMARK  107  A    between atoms: _267  and  _269
REMARK  108  A    between atoms: _269  and  _270
REMARK  109  A    between atoms: _269  and  _272
REMARK  110  A    between atoms: _272  and  _273
REMARK  111  A    between atoms: _278  and  _280
REMARK  112  A    between atoms: _280  and  _281
REMARK  113  A    between atoms: _280  and  _283
REMARK  114  A    between atoms: _283  and  _284
REMARK  115  A    between atoms: _284  and  _285
REMARK  116  A    between atoms: _285  and  _286
REMARK  117  A    between atoms: _295  and  _297
REMARK  118  A    between atoms: _297  and  _298
REMARK  119  A    between atoms: _297  and  _300
REMARK  120  A    between atoms: _300  and  _301
REMARK  121  A    between atoms: _304  and  _306
REMARK  122  A    between atoms: _306  and  _307
REMARK  123  A    between atoms: _306  and  _309
REMARK  124  A    between atoms: _309  and  _310
REMARK  125  A    between atoms: _313  and  _315
REMARK  126  A    between atoms: _315  and  _316
REMARK  127  A    between atoms: _315  and  _318
REMARK  128  A    between atoms: _318  and  _319
REMARK  129  A    between atoms: _322  and  _324
REMARK  130  A    between atoms: _324  and  _325
REMARK  131  A    between atoms: _324  and  _327
REMARK  132  A    between atoms: _327  and  _328
REMARK  133  A    between atoms: _331  and  _333
REMARK  134  A    between atoms: _333  and  _334
REMARK  135  A    between atoms: _336  and  _338
REMARK  136  A    between atoms: _338  and  _339
REMARK  137  A    between atoms: _342  and  _344
REMARK  138  A    between atoms: _344  and  _345
REMARK  139  A    between atoms: _344  and  _347
REMARK  140  A    between atoms: _347  and  _348
REMARK  141  A    between atoms: _351  and  _353
REMARK  142  A    between atoms: _353  and  _354
REMARK  143  A    between atoms: _353  and  _356
REMARK  144  A    between atoms: _356  and  _357
REMARK  145  A    between atoms: _360  and  _362
REMARK  146  A    between atoms: _362  and  _363
REMARK  147  A    between atoms: _362  and  _365
REMARK  148  A    between atoms: _365  and  _366
REMARK  149  A    between atoms: _369  and  _371
REMARK  150  A    between atoms: _371  and  _372
REMARK  151  A    between atoms: _371  and  _374
REMARK  152  A    between atoms: _377  and  _379
REMARK  153  A    between atoms: _379  and  _380
REMARK  154  A    between atoms: _379  and  _382
REMARK  155  A    between atoms: _383  and  _384
REMARK  156  A    between atoms: _384  and  _385
REMARK  157  A    between atoms: _385  and  _386
REMARK  158  A    between atoms: _390  and  _392
REMARK  159  A    between atoms: _392  and  _393
REMARK  160  A    between atoms: _392  and  _395
REMARK  161  A    between atoms: _395  and  _396
REMARK  162  A    between atoms: _396  and  _397
REMARK  163  A    between atoms: _399  and  _401
REMARK  164  A    between atoms: _401  and  _402
REMARK  165  A    between atoms: _401  and  _404
REMARK  166  A    between atoms: _404  and  _405
REMARK  167  A    between atoms: _408  and  _410
REMARK  168  A    between atoms: _410  and  _411
REMARK  169  A    between atoms: _413  and  _415
REMARK  170  A    between atoms: _415  and  _416
REMARK  171  A    between atoms: _418  and  _420
REMARK  172  A    between atoms: _420  and  _421
REMARK  173  A    between atoms: _420  and  _423
REMARK  174  A    between atoms: _423  and  _424
REMARK  175  A    between atoms: _427  and  _429
REMARK  176  A    between atoms: _429  and  _430
REMARK  177  A    between atoms: _432  and  _434
REMARK  178  A    between atoms: _434  and  _435
REMARK  179  A    between atoms: _437  and  _439
REMARK  180  A    between atoms: _439  and  _440
REMARK  181  A    between atoms: _439  and  _442
REMARK  182  A    between atoms: _442  and  _443
REMARK  183  A    between atoms: _449  and  _451
REMARK  184  A    between atoms: _451  and  _452
REMARK  185  A    between atoms: _451  and  _454
REMARK  186  A    between atoms: _454  and  _455
REMARK  187  A    between atoms: _458  and  _460
REMARK  188  A    between atoms: _460  and  _461
REMARK  189  A    between atoms: _460  and  _463
REMARK  190  A    between atoms: _466  and  _468
REMARK  191  A    between atoms: _468  and  _469
REMARK  192  A    between atoms: _468  and  _471
REMARK  193  A    between atoms: _471  and  _472
REMARK  194  A    between atoms: _475  and  _477
REMARK  195  A    between atoms: _477  and  _478
REMARK  196  A    between atoms: _477  and  _480
REMARK  197  A    between atoms: _480  and  _481
REMARK  198  A    between atoms: _485  and  _486
REMARK  199  A    between atoms: _491  and  _493
REMARK  200  A    between atoms: _493  and  _494
REMARK  201  A    between atoms: _493  and  _496
REMARK  202  A    between atoms: _499  and  _501
REMARK  203  A    between atoms: _501  and  _502
REMARK  204  A    between atoms: _501  and  _504
REMARK  205  A    between atoms: _504  and  _505
REMARK  206  A    between atoms: _510  and  _512
REMARK  207  A    between atoms: _512  and  _513
REMARK  208  A    between atoms: _512  and  _515
REMARK  209  A    between atoms: _515  and  _516
REMARK  210  A    between atoms: _519  and  _521
REMARK  211  A    between atoms: _521  and  _522
REMARK  212  A    between atoms: _521  and  _524
REMARK  213  A    between atoms: _524  and  _525
REMARK  214  A    between atoms: _528  and  _530
REMARK  215  A    between atoms: _530  and  _531
REMARK  216  A    between atoms: _533  and  _535
REMARK  217  A    between atoms: _535  and  _536
REMARK  218  A    between atoms: _535  and  _538
REMARK  219  A    between atoms: _538  and  _539
REMARK  220  A    between atoms: _539  and  _540
REMARK  221  A    between atoms: _540  and  _541
REMARK  222  A    between atoms: _550  and  _552
REMARK  223  A    between atoms: _552  and  _553
REMARK  224  A    between atoms: _552  and  _555
REMARK  225  A    between atoms: _555  and  _556
REMARK                            x       y       z     vdW  Elec       q    Type
REMARK                         _______ _______ _______ _____ _____    ______ ____
ROOT
ATOM      1  O   HOH     1      19.646  12.194   4.937  0.00  0.00    +0.000 OA
ENDROOT
TORSDOF 0
REMARK  Name = ../refined-set-2016/1izh/1izh_pocket.pdb
REMARK  225 active torsions:
REMARK  status: ('A' for Active; 'I' for Inactive)
REMARK    1  A    between atoms: _1  and  _3
REMARK    2  A    between atoms: _3  and  _4
REMARK    3  A    between atoms: _3  and  _6
REMARK    4  A    between atoms: _6  and  _7
REMARK    5  A    between atoms: _7  and  _8
REMARK    6  A    between atoms: _8  and  _9
REMARK    7  A    between atoms: _18  and  _20
REMARK    8  A    between atoms: _20  and  _21
REMARK    9  A    between atoms: _20  and  _23
REMARK   10  A    between atoms: _23  and  _24
REMARK   11  A    between atoms: _27  and  _29
REMARK   12  A    between atoms: _29  and  _30
REMARK   13  A    between atoms: _29  and  _32
REMARK   14  A    between atoms: _32  and  _33
REMARK   15  A    between atoms: _36  and  _38
REMARK   16  A    between atoms: _38  and  _39
REMARK   17  A    between atoms: _38  and  _41
REMARK   18  A    between atoms: _41  and  _42
REMARK   19  A    between atoms: _45  and  _47
REMARK   20  A    between atoms: _47  and  _48
REMARK   21  A    between atoms: _47  and  _50
REMARK   22  A    between atoms: _50  and  _51
REMARK   23  A    between atoms: _54  and  _56
REMARK   24  A    between atoms: _56  and  _57
REMARK   25  A    between atoms: _59  and  _61
REMARK   26  A    between atoms: _61  and  _62
REMARK   27  A    between atoms: _65  and  _67
REMARK   28  A    between atoms: _67  and  _68
REMARK   29  A    between atoms: _67  and  _70
REMARK   30  A    between atoms: _70  and  _71
REMARK   31  A    between atoms: _74  and  _76
REMARK   32  A    between atoms: _76  and  _77
REMARK   33  A    between atoms: _76  and  _79
REMARK   34  A    between atoms: _79  and  _80
REMARK   35  A    between atoms: _83  and  _85
REMARK   36  A    between atoms: _85  and  _86
REMARK   37  A    between atoms: _85  and  _88
REMARK   38  A    between atoms: _88  and  _89
REMARK   39  A    between atoms: _92  and  _94
REMARK   40  A    between atoms: _94  and  _95
REMARK   41  A    between atoms: _94  and  _97
REMARK   42  A    between atoms: _100  and  _102
REMARK   43  A    between atoms: _102  and  _103
REMARK   44  A    between atoms: _102  and  _105
REMARK   45  A    between atoms: _105  and  _106
REMARK   46  A    between atoms: _106  and  _107
REMARK   47  A    between atoms: _109  and  _111
REMARK   48  A    between atoms: _111  and  _112
REMARK   49  A    between atoms: _111  and  _114
REMARK   50  A    between atoms: _114  and  _115
REMARK   51  A    between atoms: _118  and  _120
REMARK   52  A    between atoms: _120  and  _121
REMARK   53  A    between atoms: _123  and  _125
REMARK   54  A    between atoms: _125  and  _126
REMARK   55  A    between atoms: _128  and  _130
REMARK   56  A    between atoms: _130  and  _131
REMARK   57  A    between atoms: _130  and  _133
REMARK   58  A    between atoms: _133  and  _134
REMARK   59  A    between atoms: _137  and  _139
REMARK   60  A    between atoms: _139  and  _140
REMARK   61  A    between atoms: _142  and  _144
REMARK   62  A    between atoms: _144  and  _145
REMARK   63  A    between atoms: _147  and  _149
REMARK   64  A    between atoms: _149  and  _150
REMARK   65  A    between atoms: _149  and  _152
REMARK   66  A    between atoms: _152  and  _153
REMARK   67  A    between atoms: _159  and  _161
REMARK   68  A    between atoms: _161  and  _162
REMARK   69  A    between atoms: _161  and  _164
REMARK   70  A    between atoms: _164  and  _165
REMARK   71  A    between atoms: _168  and  _170
REMARK   72  A    between atoms: _170  and  _171
REMARK   73  A    between atoms: _170  and  _173
REMARK   74  A    between atoms: _176  and  _178
REMARK   75  A    between atoms: _178  and  _179
REMARK   76  A    between atoms: _178  and  _181
REMARK   77  A    between atoms: _181  and  _182
REMARK   78  A    between atoms: _186  and  _187
REMARK   79  A    between atoms: _192  and  _194
REMARK   80  A    between atoms: _194  and  _195
REMARK   81  A    between atoms: _194  and  _197
REMARK   82  A    between atoms: _197  and  _198
REMARK   83  A    between atoms: _202  and  _203
REMARK   84  A    between atoms: _208  and  _210
REMARK   85  A    between atoms: _210  and  _211
REMARK   86  A    between atoms: _210  and  _213
REMARK   87  A    between atoms: _216  and  _218
REMARK   88  A    between atoms: _218  and  _219
REMARK   89  A    between atoms: _218  and  _221
REMARK   90  A    between atoms: _221  and  _222
REMARK   91  A    between atoms: _227  and  _229
REMARK   92  A    between atoms: _229  and  _230
REMARK   93  A    between atoms: _229  and  _232
REMARK   94  A    between atoms: _232  and  _233
REMARK   95  A    between atoms: _236  and  _238
REMARK   96  A    between atoms: _238  and  _239
REMARK   97  A    between atoms: _238  and  _241
REMARK   98  A    between atoms: _241  and  _242
REMARK   99  A    between atoms: _245  and  _247
REMARK  100  A    between atoms: _247  and  _248
REMARK  101  A    between atoms: _250  and  _252
REMARK  102  A    between atoms: _252  and  _253
REMARK  103  A    between atoms: _252  and  _255
REMARK  104  A    between atoms: _255  and  _256
REMARK  105  A    between atoms: _256  and  _257
REMARK  106  A    between atoms: _257  and  _258
REMARK  107  A    between atoms: _267  and  _269
REMARK  108  A    between atoms: _269  and  _270
REMARK  109  A    between atoms: _269  and  _272
REMARK  110  A    between atoms: _272  and  _273
REMARK  111  A    between atoms: _278  and  _280
REMARK  112  A    between atoms: _280  and  _281
REMARK  113  A    between atoms: _280  and  _283
REMARK  114  A    between atoms: _283  and  _284
REMARK  115  A    between atoms: _284  and  _285
REMARK  116  A    between atoms: _285  and  _286
REMARK  117  A    between atoms: _295  and  _297
REMARK  118  A    between atoms: _297  and  _298
REMARK  119  A    between atoms: _297  and  _300
REMARK  120  A    between atoms: _300  and  _301
REMARK  121  A    between atoms: _304  and  _306
REMARK  122  A    between atoms: _306  and  _307
REMARK  123  A    between atoms: _306  and  _309
REMARK  124  A    between atoms: _309  and  _310
REMARK  125  A    between atoms: _313  and  _315
REMARK  126  A    between atoms: _315  and  _316
REMARK  127  A    between atoms: _315  and  _318
REMARK  128  A    between atoms: _318  and  _319
REMARK  129  A    between atoms: _322  and  _324
REMARK  130  A    between atoms: _324  and  _325
REMARK  131  A    between atoms: _324  and  _327
REMARK  132  A    between atoms: _327  and  _328
REMARK  133  A    between atoms: _331  and  _333
REMARK  134  A    between atoms: _333  and  _334
REMARK  135  A    between atoms: _336  and  _338
REMARK  136  A    between atoms: _338  and  _339
REMARK  137  A    between atoms: _342  and  _344
REMARK  138  A    between atoms: _344  and  _345
REMARK  139  A    between atoms: _344  and  _347
REMARK  140  A    between atoms: _347  and  _348
REMARK  141  A    between atoms: _351  and  _353
REMARK  142  A    between atoms: _353  and  _354
REMARK  143  A    between atoms: _353  and  _356
REMARK  144  A    between atoms: _356  and  _357
REMARK  145  A    between atoms: _360  and  _362
REMARK  146  A    between atoms: _362  and  _363
REMARK  147  A    between atoms: _362  and  _365
REMARK  148  A    between atoms: _365  and  _366
REMARK  149  A    between atoms: _369  and  _371
REMARK  150  A    between atoms: _371  and  _372
REMARK  151  A    between atoms: _371  and  _374
REMARK  152  A    between atoms: _377  and  _379
REMARK  153  A    between atoms: _379  and  _380
REMARK  154  A    between atoms: _379  and  _382
REMARK  155  A    between atoms: _383  and  _384
REMARK  156  A    between atoms: _384  and  _385
REMARK  157  A    between atoms: _385  and  _386
REMARK  158  A    between atoms: _390  and  _392
REMARK  159  A    between atoms: _392  and  _393
REMARK  160  A    between atoms: _392  and  _395
REMARK  161  A    between atoms: _395  and  _396
REMARK  162  A    between atoms: _396  and  _397
REMARK  163  A    between atoms: _399  and  _401
REMARK  164  A    between atoms: _401  and  _402
REMARK  165  A    between atoms: _401  and  _404
REMARK  166  A    between atoms: _404  and  _405
REMARK  167  A    between atoms: _408  and  _410
REMARK  168  A    between atoms: _410  and  _411
REMARK  169  A    between atoms: _413  and  _415
REMARK  170  A    between atoms: _415  and  _416
REMARK  171  A    between atoms: _418  and  _420
REMARK  172  A    between atoms: _420  and  _421
REMARK  173  A    between atoms: _420  and  _423
REMARK  174  A    between atoms: _423  and  _424
REMARK  175  A    between atoms: _427  and  _429
REMARK  176  A    between atoms: _429  and  _430
REMARK  177  A    between atoms: _432  and  _434
REMARK  178  A    between atoms: _434  and  _435
REMARK  179  A    between atoms: _437  and  _439
REMARK  180  A    between atoms: _439  and  _440
REMARK  181  A    between atoms: _439  and  _442
REMARK  182  A    between atoms: _442  and  _443
REMARK  183  A    between atoms: _449  and  _451
REMARK  184  A    between atoms: _451  and  _452
REMARK  185  A    between atoms: _451  and  _454
REMARK  186  A    between atoms: _454  and  _455
REMARK  187  A    between atoms: _458  and  _460
REMARK  188  A    between atoms: _460  and  _461
REMARK  189  A    between atoms: _460  and  _463
REMARK  190  A    between atoms: _466  and  _468
REMARK  191  A    between atoms: _468  and  _469
REMARK  192  A    between atoms: _468  and  _471
REMARK  193  A    between atoms: _471  and  _472
REMARK  194  A    between atoms: _475  and  _477
REMARK  195  A    between atoms: _477  and  _478
REMARK  196  A    between atoms: _477  and  _480
REMARK  197  A    between atoms: _480  and  _481
REMARK  198  A    between atoms: _485  and  _486
REMARK  199  A    between atoms: _491  and  _493
REMARK  200  A    between atoms: _493  and  _494
REMARK  201  A    between atoms: _493  and  _496
REMARK  202  A    between atoms: _499  and  _501
REMARK  203  A    between atoms: _501  and  _502
REMARK  204  A    between atoms: _501  and  _504
REMARK  205  A    between atoms: _504  and  _505
REMARK  206  A    between atoms: _510  and  _512
REMARK  207  A    between atoms: _512  and  _513
REMARK  208  A    between atoms: _512  and  _515
REMARK  209  A    between atoms: _515  and  _516
REMARK  210  A    between atoms: _519  and  _521
REMARK  211  A    between atoms: _521  and  _522
REMARK  212  A    between atoms: _521  and  _524
REMARK  213  A    between atoms: _524  and  _525
REMARK  214  A    between atoms: _528  and  _530
REMARK  215  A    between atoms: _530  and  _531
REMARK  216  A    between atoms: _533  and  _535
REMARK  217  A    between atoms: _535  and  _536
REMARK  218  A    between atoms: _535  and  _538
REMARK  219  A    between atoms: _538  and  _539
REMARK  220  A    between atoms: _539  and  _540
REMARK  221  A    between atoms: _540  and  _541
REMARK  222  A    between atoms: _550  and  _552
REMARK  223  A    between atoms: _552  and  _553
REMARK  224  A    between atoms: _552  and  _555
REMARK  225  A    between atoms: _555  and  _556
REMARK                            x       y       z     vdW  Elec       q    Type
REMARK                         _______ _______ _______ _____ _____    ______ ____
ROOT
ATOM      1  O   HOH     1       5.843  27.781  -2.768  0.00  0.00    +0.000 OA
ENDROOT
TORSDOF 0
REMARK  Name = ../refined-set-2016/1izh/1izh_pocket.pdb
REMARK  225 active torsions:
REMARK  status: ('A' for Active; 'I' for Inactive)
REMARK    1  A    between atoms: _1  and  _3
REMARK    2  A    between atoms: _3  and  _4
REMARK    3  A    between atoms: _3  and  _6
REMARK    4  A    between atoms: _6  and  _7
REMARK    5  A    between atoms: _7  and  _8
REMARK    6  A    between atoms: _8  and  _9
REMARK    7  A    between atoms: _18  and  _20
REMARK    8  A    between atoms: _20  and  _21
REMARK    9  A    between atoms: _20  and  _23
REMARK   10  A    between atoms: _23  and  _24
REMARK   11  A    between atoms: _27  and  _29
REMARK   12  A    between atoms: _29  and  _30
REMARK   13  A    between atoms: _29  and  _32
REMARK   14  A    between atoms: _32  and  _33
REMARK   15  A    between atoms: _36  and  _38
REMARK   16  A    between atoms: _38  and  _39
REMARK   17  A    between atoms: _38  and  _41
REMARK   18  A    between atoms: _41  and  _42
REMARK   19  A    between atoms: _45  and  _47
REMARK   20  A    between atoms: _47  and  _48
REMARK   21  A    between atoms: _47  and  _50
REMARK   22  A    between atoms: _50  and  _51
REMARK   23  A    between atoms: _54  and  _56
REMARK   24  A    between atoms: _56  and  _57
REMARK   25  A    between atoms: _59  and  _61
REMARK   26  A    between atoms: _61  and  _62
REMARK   27  A    between atoms: _65  and  _67
REMARK   28  A    between atoms: _67  and  _68
REMARK   29  A    between atoms: _67  and  _70
REMARK   30  A    between atoms: _70  and  _71
REMARK   31  A    between atoms: _74  and  _76
REMARK   32  A    between atoms: _76  and  _77
REMARK   33  A    between atoms: _76  and  _79
REMARK   34  A    between atoms: _79  and  _80
REMARK   35  A    between atoms: _83  and  _85
REMARK   36  A    between atoms: _85  and  _86
REMARK   37  A    between atoms: _85  and  _88
REMARK   38  A    between atoms: _88  and  _89
REMARK   39  A    between atoms: _92  and  _94
REMARK   40  A    between atoms: _94  and  _95
REMARK   41  A    between atoms: _94  and  _97
REMARK   42  A    between atoms: _100  and  _102
REMARK   43  A    between atoms: _102  and  _103
REMARK   44  A    between atoms: _102  and  _105
REMARK   45  A    between atoms: _105  and  _106
REMARK   46  A    between atoms: _106  and  _107
REMARK   47  A    between atoms: _109  and  _111
REMARK   48  A    between atoms: _111  and  _112
REMARK   49  A    between atoms: _111  and  _114
REMARK   50  A    between atoms: _114  and  _115
REMARK   51  A    between atoms: _118  and  _120
REMARK   52  A    between atoms: _120  and  _121
REMARK   53  A    between atoms: _123  and  _125
REMARK   54  A    between atoms: _125  and  _126
REMARK   55  A    between atoms: _128  and  _130
REMARK   56  A    between atoms: _130  and  _131
REMARK   57  A    between atoms: _130  and  _133
REMARK   58  A    between atoms: _133  and  _134
REMARK   59  A    between atoms: _137  and  _139
REMARK   60  A    between atoms: _139  and  _140
REMARK   61  A    between atoms: _142  and  _144
REMARK   62  A    between atoms: _144  and  _145
REMARK   63  A    between atoms: _147  and  _149
REMARK   64  A    between atoms: _149  and  _150
REMARK   65  A    between atoms: _149  and  _152
REMARK   66  A    between atoms: _152  and  _153
REMARK   67  A    between atoms: _159  and  _161
REMARK   68  A    between atoms: _161  and  _162
REMARK   69  A    between atoms: _161  and  _164
REMARK   70  A    between atoms: _164  and  _165
REMARK   71  A    between atoms: _168  and  _170
REMARK   72  A    between atoms: _170  and  _171
REMARK   73  A    between atoms: _170  and  _173
REMARK   74  A    between atoms: _176  and  _178
REMARK   75  A    between atoms: _178  and  _179
REMARK   76  A    between atoms: _178  and  _181
REMARK   77  A    between atoms: _181  and  _182
REMARK   78  A    between atoms: _186  and  _187
REMARK   79  A    between atoms: _192  and  _194
REMARK   80  A    between atoms: _194  and  _195
REMARK   81  A    between atoms: _194  and  _197
REMARK   82  A    between atoms: _197  and  _198
REMARK   83  A    between atoms: _202  and  _203
REMARK   84  A    between atoms: _208  and  _210
REMARK   85  A    between atoms: _210  and  _211
REMARK   86  A    between atoms: _210  and  _213
REMARK   87  A    between atoms: _216  and  _218
REMARK   88  A    between atoms: _218  and  _219
REMARK   89  A    between atoms: _218  and  _221
REMARK   90  A    between atoms: _221  and  _222
REMARK   91  A    between atoms: _227  and  _229
REMARK   92  A    between atoms: _229  and  _230
REMARK   93  A    between atoms: _229  and  _232
REMARK   94  A    between atoms: _232  and  _233
REMARK   95  A    between atoms: _236  and  _238
REMARK   96  A    between atoms: _238  and  _239
REMARK   97  A    between atoms: _238  and  _241
REMARK   98  A    between atoms: _241  and  _242
REMARK   99  A    between atoms: _245  and  _247
REMARK  100  A    between atoms: _247  and  _248
REMARK  101  A    between atoms: _250  and  _252
REMARK  102  A    between atoms: _252  and  _253
REMARK  103  A    between atoms: _252  and  _255
REMARK  104  A    between atoms: _255  and  _256
REMARK  105  A    between atoms: _256  and  _257
REMARK  106  A    between atoms: _257  and  _258
REMARK  107  A    between atoms: _267  and  _269
REMARK  108  A    between atoms: _269  and  _270
REMARK  109  A    between atoms: _269  and  _272
REMARK  110  A    between atoms: _272  and  _273
REMARK  111  A    between atoms: _278  and  _280
REMARK  112  A    between atoms: _280  and  _281
REMARK  113  A    between atoms: _280  and  _283
REMARK  114  A    between atoms: _283  and  _284
REMARK  115  A    between atoms: _284  and  _285
REMARK  116  A    between atoms: _285  and  _286
REMARK  117  A    between atoms: _295  and  _297
REMARK  118  A    between atoms: _297  and  _298
REMARK  119  A    between atoms: _297  and  _300
REMARK  120  A    between atoms: _300  and  _301
REMARK  121  A    between atoms: _304  and  _306
REMARK  122  A    between atoms: _306  and  _307
REMARK  123  A    between atoms: _306  and  _309
REMARK  124  A    between atoms: _309  and  _310
REMARK  125  A    between atoms: _313  and  _315
REMARK  126  A    between atoms: _315  and  _316
REMARK  127  A    between atoms: _315  and  _318
REMARK  128  A    between atoms: _318  and  _319
REMARK  129  A    between atoms: _322  and  _324
REMARK  130  A    between atoms: _324  and  _325
REMARK  131  A    between atoms: _324  and  _327
REMARK  132  A    between atoms: _327  and  _328
REMARK  133  A    between atoms: _331  and  _333
REMARK  134  A    between atoms: _333  and  _334
REMARK  135  A    between atoms: _336  and  _338
REMARK  136  A    between atoms: _338  and  _339
REMARK  137  A    between atoms: _342  and  _344
REMARK  138  A    between atoms: _344  and  _345
REMARK  139  A    between atoms: _344  and  _347
REMARK  140  A    between atoms: _347  and  _348
REMARK  141  A    between atoms: _351  and  _353
REMARK  142  A    between atoms: _353  and  _354
REMARK  143  A    between atoms: _353  and  _356
REMARK  144  A    between atoms: _356  and  _357
REMARK  145  A    between atoms: _360  and  _362
REMARK  146  A    between atoms: _362  and  _363
REMARK  147  A    between atoms: _362  and  _365
REMARK  148  A    between atoms: _365  and  _366
REMARK  149  A    between atoms: _369  and  _371
REMARK  150  A    between atoms: _371  and  _372
REMARK  151  A    between atoms: _371  and  _374
REMARK  152  A    between atoms: _377  and  _379
REMARK  153  A    between atoms: _379  and  _380
REMARK  154  A    between atoms: _379  and  _382
REMARK  155  A    between atoms: _383  and  _384
REMARK  156  A    between atoms: _384  and  _385
REMARK  157  A    between atoms: _385  and  _386
REMARK  158  A    between atoms: _390  and  _392
REMARK  159  A    between atoms: _392  and  _393
REMARK  160  A    between atoms: _392  and  _395
REMARK  161  A    between atoms: _395  and  _396
REMARK  162  A    between atoms: _396  and  _397
REMARK  163  A    between atoms: _399  and  _401
REMARK  164  A    between atoms: _401  and  _402
REMARK  165  A    between atoms: _401  and  _404
REMARK  166  A    between atoms: _404  and  _405
REMARK  167  A    between atoms: _408  and  _410
REMARK  168  A    between atoms: _410  and  _411
REMARK  169  A    between atoms: _413  and  _415
REMARK  170  A    between atoms: _415  and  _416
REMARK  171  A    between atoms: _418  and  _420
REMARK  172  A    between atoms: _420  and  _421
REMARK  173  A    between atoms: _420  and  _423
REMARK  174  A    between atoms: _423  and  _424
REMARK  175  A    between atoms: _427  and  _429
REMARK  176  A    between atoms: _429  and  _430
REMARK  177  A    between atoms: _432  and  _434
REMARK  178  A    between atoms: _434  and  _435
REMARK  179  A    between atoms: _437  and  _439
REMARK  180  A    between atoms: _439  and  _440
REMARK  181  A    between atoms: _439  and  _442
REMARK  182  A    between atoms: _442  and  _443
REMARK  183  A    between atoms: _449  and  _451
REMARK  184  A    between atoms: _451  and  _452
REMARK  185  A    between atoms: _451  and  _454
REMARK  186  A    between atoms: _454  and  _455
REMARK  187  A    between atoms: _458  and  _460
REMARK  188  A    between atoms: _460  and  _461
REMARK  189  A    between atoms: _460  and  _463
REMARK  190  A    between atoms: _466  and  _468
REMARK  191  A    between atoms: _468  and  _469
REMARK  192  A    between atoms: _468  and  _471
REMARK  193  A    between atoms: _471  and  _472
REMARK  194  A    between atoms: _475  and  _477
REMARK  195  A    between atoms: _477  and  _478
REMARK  196  A    between atoms: _477  and  _480
REMARK  197  A    between atoms: _480  and  _481
REMARK  198  A    between atoms: _485  and  _486
REMARK  199  A    between atoms: _491  and  _493
REMARK  200  A    between atoms: _493  and  _494
REMARK  201  A    between atoms: _493  and  _496
REMARK  202  A    between atoms: _499  and  _501
REMARK  203  A    between atoms: _501  and  _502
REMARK  204  A    between atoms: _501  and  _504
REMARK  205  A    between atoms: _504  and  _505
REMARK  206  A    between atoms: _510  and  _512
REMARK  207  A    between atoms: _512  and  _513
REMARK  208  A    between atoms: _512  and  _515
REMARK  209  A    between atoms: _515  and  _516
REMARK  210  A    between atoms: _519  and  _521
REMARK  211  A    between atoms: _521  and  _522
REMARK  212  A    between atoms: _521  and  _524
REMARK  213  A    between atoms: _524  and  _525
REMARK  214  A    between atoms: _528  and  _530
REMARK  215  A    between atoms: _530  and  _531
REMARK  216  A    between atoms: _533  and  _535
REMARK  217  A    between atoms: _535  and  _536
REMARK  218  A    between atoms: _535  and  _538
REMARK  219  A    between atoms: _538  and  _539
REMARK  220  A    between atoms: _539  and  _540
REMARK  221  A    between atoms: _540  and  _541
REMARK  222  A    between atoms: _550  and  _552
REMARK  223  A    between atoms: _552  and  _553
REMARK  224  A    between atoms: _552  and  _555
REMARK  225  A    between atoms: _555  and  _556
REMARK                            x       y       z     vdW  Elec       q    Type
REMARK                         _______ _______ _______ _____ _____    ______ ____
ROOT
ATOM      1  O   HOH     1       9.786  16.500  13.828  0.00  0.00    +0.000 OA
ENDROOT
TORSDOF 0
REMARK  Name = ../refined-set-2016/1izh/1izh_pocket.pdb
REMARK  225 active torsions:
REMARK  status: ('A' for Active; 'I' for Inactive)
REMARK    1  A    between atoms: _1  and  _3
REMARK    2  A    between atoms: _3  and  _4
REMARK    3  A    between atoms: _3  and  _6
REMARK    4  A    between atoms: _6  and  _7
REMARK    5  A    between atoms: _7  and  _8
REMARK    6  A    between atoms: _8  and  _9
REMARK    7  A    between atoms: _18  and  _20
REMARK    8  A    between atoms: _20  and  _21
REMARK    9  A    between atoms: _20  and  _23
REMARK   10  A    between atoms: _23  and  _24
REMARK   11  A    between atoms: _27  and  _29
REMARK   12  A    between atoms: _29  and  _30
REMARK   13  A    between atoms: _29  and  _32
REMARK   14  A    between atoms: _32  and  _33
REMARK   15  A    between atoms: _36  and  _38
REMARK   16  A    between atoms: _38  and  _39
REMARK   17  A    between atoms: _38  and  _41
REMARK   18  A    between atoms: _41  and  _42
REMARK   19  A    between atoms: _45  and  _47
REMARK   20  A    between atoms: _47  and  _48
REMARK   21  A    between atoms: _47  and  _50
REMARK   22  A    between atoms: _50  and  _51
REMARK   23  A    between atoms: _54  and  _56
REMARK   24  A    between atoms: _56  and  _57
REMARK   25  A    between atoms: _59  and  _61
REMARK   26  A    between atoms: _61  and  _62
REMARK   27  A    between atoms: _65  and  _67
REMARK   28  A    between atoms: _67  and  _68
REMARK   29  A    between atoms: _67  and  _70
REMARK   30  A    between atoms: _70  and  _71
REMARK   31  A    between atoms: _74  and  _76
REMARK   32  A    between atoms: _76  and  _77
REMARK   33  A    between atoms: _76  and  _79
REMARK   34  A    between atoms: _79  and  _80
REMARK   35  A    between atoms: _83  and  _85
REMARK   36  A    between atoms: _85  and  _86
REMARK   37  A    between atoms: _85  and  _88
REMARK   38  A    between atoms: _88  and  _89
REMARK   39  A    between atoms: _92  and  _94
REMARK   40  A    between atoms: _94  and  _95
REMARK   41  A    between atoms: _94  and  _97
REMARK   42  A    between atoms: _100  and  _102
REMARK   43  A    between atoms: _102  and  _103
REMARK   44  A    between atoms: _102  and  _105
REMARK   45  A    between atoms: _105  and  _106
REMARK   46  A    between atoms: _106  and  _107
REMARK   47  A    between atoms: _109  and  _111
REMARK   48  A    between atoms: _111  and  _112
REMARK   49  A    between atoms: _111  and  _114
REMARK   50  A    between atoms: _114  and  _115
REMARK   51  A    between atoms: _118  and  _120
REMARK   52  A    between atoms: _120  and  _121
REMARK   53  A    between atoms: _123  and  _125
REMARK   54  A    between atoms: _125  and  _126
REMARK   55  A    between atoms: _128  and  _130
REMARK   56  A    between atoms: _130  and  _131
REMARK   57  A    between atoms: _130  and  _133
REMARK   58  A    between atoms: _133  and  _134
REMARK   59  A    between atoms: _137  and  _139
REMARK   60  A    between atoms: _139  and  _140
REMARK   61  A    between atoms: _142  and  _144
REMARK   62  A    between atoms: _144  and  _145
REMARK   63  A    between atoms: _147  and  _149
REMARK   64  A    between atoms: _149  and  _150
REMARK   65  A    between atoms: _149  and  _152
REMARK   66  A    between atoms: _152  and  _153
REMARK   67  A    between atoms: _159  and  _161
REMARK   68  A    between atoms: _161  and  _162
REMARK   69  A    between atoms: _161  and  _164
REMARK   70  A    between atoms: _164  and  _165
REMARK   71  A    between atoms: _168  and  _170
REMARK   72  A    between atoms: _170  and  _171
REMARK   73  A    between atoms: _170  and  _173
REMARK   74  A    between atoms: _176  and  _178
REMARK   75  A    between atoms: _178  and  _179
REMARK   76  A    between atoms: _178  and  _181
REMARK   77  A    between atoms: _181  and  _182
REMARK   78  A    between atoms: _186  and  _187
REMARK   79  A    between atoms: _192  and  _194
REMARK   80  A    between atoms: _194  and  _195
REMARK   81  A    between atoms: _194  and  _197
REMARK   82  A    between atoms: _197  and  _198
REMARK   83  A    between atoms: _202  and  _203
REMARK   84  A    between atoms: _208  and  _210
REMARK   85  A    between atoms: _210  and  _211
REMARK   86  A    between atoms: _210  and  _213
REMARK   87  A    between atoms: _216  and  _218
REMARK   88  A    between atoms: _218  and  _219
REMARK   89  A    between atoms: _218  and  _221
REMARK   90  A    between atoms: _221  and  _222
REMARK   91  A    between atoms: _227  and  _229
REMARK   92  A    between atoms: _229  and  _230
REMARK   93  A    between atoms: _229  and  _232
REMARK   94  A    between atoms: _232  and  _233
REMARK   95  A    between atoms: _236  and  _238
REMARK   96  A    between atoms: _238  and  _239
REMARK   97  A    between atoms: _238  and  _241
REMARK   98  A    between atoms: _241  and  _242
REMARK   99  A    between atoms: _245  and  _247
REMARK  100  A    between atoms: _247  and  _248
REMARK  101  A    between atoms: _250  and  _252
REMARK  102  A    between atoms: _252  and  _253
REMARK  103  A    between atoms: _252  and  _255
REMARK  104  A    between atoms: _255  and  _256
REMARK  105  A    between atoms: _256  and  _257
REMARK  106  A    between atoms: _257  and  _258
REMARK  107  A    between atoms: _267  and  _269
REMARK  108  A    between atoms: _269  and  _270
REMARK  109  A    between atoms: _269  and  _272
REMARK  110  A    between atoms: _272  and  _273
REMARK  111  A    between atoms: _278  and  _280
REMARK  112  A    between atoms: _280  and  _281
REMARK  113  A    between atoms: _280  and  _283
REMARK  114  A    between atoms: _283  and  _284
REMARK  115  A    between atoms: _284  and  _285
REMARK  116  A    between atoms: _285  and  _286
REMARK  117  A    between atoms: _295  and  _297
REMARK  118  A    between atoms: _297  and  _298
REMARK  119  A    between atoms: _297  and  _300
REMARK  120  A    between atoms: _300  and  _301
REMARK  121  A    between atoms: _304  and  _306
REMARK  122  A    between atoms: _306  and  _307
REMARK  123  A    between atoms: _306  and  _309
REMARK  124  A    between atoms: _309  and  _310
REMARK  125  A    between atoms: _313  and  _315
REMARK  126  A    between atoms: _315  and  _316
REMARK  127  A    between atoms: _315  and  _318
REMARK  128  A    between atoms: _318  and  _319
REMARK  129  A    between atoms: _322  and  _324
REMARK  130  A    between atoms: _324  and  _325
REMARK  131  A    between atoms: _324  and  _327
REMARK  132  A    between atoms: _327  and  _328
REMARK  133  A    between atoms: _331  and  _333
REMARK  134  A    between atoms: _333  and  _334
REMARK  135  A    between atoms: _336  and  _338
REMARK  136  A    between atoms: _338  and  _339
REMARK  137  A    between atoms: _342  and  _344
REMARK  138  A    between atoms: _344  and  _345
REMARK  139  A    between atoms: _344  and  _347
REMARK  140  A    between atoms: _347  and  _348
REMARK  141  A    between atoms: _351  and  _353
REMARK  142  A    between atoms: _353  and  _354
REMARK  143  A    between atoms: _353  and  _356
REMARK  144  A    between atoms: _356  and  _357
REMARK  145  A    between atoms: _360  and  _362
REMARK  146  A    between atoms: _362  and  _363
REMARK  147  A    between atoms: _362  and  _365
REMARK  148  A    between atoms: _365  and  _366
REMARK  149  A    between atoms: _369  and  _371
REMARK  150  A    between atoms: _371  and  _372
REMARK  151  A    between atoms: _371  and  _374
REMARK  152  A    between atoms: _377  and  _379
REMARK  153  A    between atoms: _379  and  _380
REMARK  154  A    between atoms: _379  and  _382
REMARK  155  A    between atoms: _383  and  _384
REMARK  156  A    between atoms: _384  and  _385
REMARK  157  A    between atoms: _385  and  _386
REMARK  158  A    between atoms: _390  and  _392
REMARK  159  A    between atoms: _392  and  _393
REMARK  160  A    between atoms: _392  and  _395
REMARK  161  A    between atoms: _395  and  _396
REMARK  162  A    between atoms: _396  and  _397
REMARK  163  A    between atoms: _399  and  _401
REMARK  164  A    between atoms: _401  and  _402
REMARK  165  A    between atoms: _401  and  _404
REMARK  166  A    between atoms: _404  and  _405
REMARK  167  A    between atoms: _408  and  _410
REMARK  168  A    between atoms: _410  and  _411
REMARK  169  A    between atoms: _413  and  _415
REMARK  170  A    between atoms: _415  and  _416
REMARK  171  A    between atoms: _418  and  _420
REMARK  172  A    between atoms: _420  and  _421
REMARK  173  A    between atoms: _420  and  _423
REMARK  174  A    between atoms: _423  and  _424
REMARK  175  A    between atoms: _427  and  _429
REMARK  176  A    between atoms: _429  and  _430
REMARK  177  A    between atoms: _432  and  _434
REMARK  178  A    between atoms: _434  and  _435
REMARK  179  A    between atoms: _437  and  _439
REMARK  180  A    between atoms: _439  and  _440
REMARK  181  A    between atoms: _439  and  _442
REMARK  182  A    between atoms: _442  and  _443
REMARK  183  A    between atoms: _449  and  _451
REMARK  184  A    between atoms: _451  and  _452
REMARK  185  A    between atoms: _451  and  _454
REMARK  186  A    between atoms: _454  and  _455
REMARK  187  A    between atoms: _458  and  _460
REMARK  188  A    between atoms: _460  and  _461
REMARK  189  A    between atoms: _460  and  _463
REMARK  190  A    between atoms: _466  and  _468
REMARK  191  A    between atoms: _468  and  _469
REMARK  192  A    between atoms: _468  and  _471
REMARK  193  A    between atoms: _471  and  _472
REMARK  194  A    between atoms: _475  and  _477
REMARK  195  A    between atoms: _477  and  _478
REMARK  196  A    between atoms: _477  and  _480
REMARK  197  A    between atoms: _480  and  _481
REMARK  198  A    between atoms: _485  and  _486
REMARK  199  A    between atoms: _491  and  _493
REMARK  200  A    between atoms: _493  and  _494
REMARK  201  A    between atoms: _493  and  _496
REMARK  202  A    between atoms: _499  and  _501
REMARK  203  A    between atoms: _501  and  _502
REMARK  204  A    between atoms: _501  and  _504
REMARK  205  A    between atoms: _504  and  _505
REMARK  206  A    between atoms: _510  and  _512
REMARK  207  A    between atoms: _512  and  _513
REMARK  208  A    between atoms: _512  and  _515
REMARK  209  A    between atoms: _515  and  _516
REMARK  210  A    between atoms: _519  and  _521
REMARK  211  A    between atoms: _521  and  _522
REMARK  212  A    between atoms: _521  and  _524
REMARK  213  A    between atoms: _524  and  _525
REMARK  214  A    between atoms: _528  and  _530
REMARK  215  A    between atoms: _530  and  _531
REMARK  216  A    between atoms: _533  and  _535
REMARK  217  A    between atoms: _535  and  _536
REMARK  218  A    between atoms: _535  and  _538
REMARK  219  A    between atoms: _538  and  _539
REMARK  220  A    between atoms: _539  and  _540
REMARK  221  A    between atoms: _540  and  _541
REMARK  222  A    between atoms: _550  and  _552
REMARK  223  A    between atoms: _552  and  _553
REMARK  224  A    between atoms: _552  and  _555
REMARK  225  A    between atoms: _555  and  _556
REMARK                            x       y       z     vdW  Elec       q    Type
REMARK                         _______ _______ _______ _____ _____    ______ ____
ROOT
ATOM      1  O   HOH     1       2.644  26.122   1.182  0.00  0.00    +0.000 OA
ENDROOT
TORSDOF 0
REMARK  Name = ../refined-set-2016/1izh/1izh_pocket.pdb
REMARK  225 active torsions:
REMARK  status: ('A' for Active; 'I' for Inactive)
REMARK    1  A    between atoms: _1  and  _3
REMARK    2  A    between atoms: _3  and  _4
REMARK    3  A    between atoms: _3  and  _6
REMARK    4  A    between atoms: _6  and  _7
REMARK    5  A    between atoms: _7  and  _8
REMARK    6  A    between atoms: _8  and  _9
REMARK    7  A    between atoms: _18  and  _20
REMARK    8  A    between atoms: _20  and  _21
REMARK    9  A    between atoms: _20  and  _23
REMARK   10  A    between atoms: _23  and  _24
REMARK   11  A    between atoms: _27  and  _29
REMARK   12  A    between atoms: _29  and  _30
REMARK   13  A    between atoms: _29  and  _32
REMARK   14  A    between atoms: _32  and  _33
REMARK   15  A    between atoms: _36  and  _38
REMARK   16  A    between atoms: _38  and  _39
REMARK   17  A    between atoms: _38  and  _41
REMARK   18  A    between atoms: _41  and  _42
REMARK   19  A    between atoms: _45  and  _47
REMARK   20  A    between atoms: _47  and  _48
REMARK   21  A    between atoms: _47  and  _50
REMARK   22  A    between atoms: _50  and  _51
REMARK   23  A    between atoms: _54  and  _56
REMARK   24  A    between atoms: _56  and  _57
REMARK   25  A    between atoms: _59  and  _61
REMARK   26  A    between atoms: _61  and  _62
REMARK   27  A    between atoms: _65  and  _67
REMARK   28  A    between atoms: _67  and  _68
REMARK   29  A    between atoms: _67  and  _70
REMARK   30  A    between atoms: _70  and  _71
REMARK   31  A    between atoms: _74  and  _76
REMARK   32  A    between atoms: _76  and  _77
REMARK   33  A    between atoms: _76  and  _79
REMARK   34  A    between atoms: _79  and  _80
REMARK   35  A    between atoms: _83  and  _85
REMARK   36  A    between atoms: _85  and  _86
REMARK   37  A    between atoms: _85  and  _88
REMARK   38  A    between atoms: _88  and  _89
REMARK   39  A    between atoms: _92  and  _94
REMARK   40  A    between atoms: _94  and  _95
REMARK   41  A    between atoms: _94  and  _97
REMARK   42  A    between atoms: _100  and  _102
REMARK   43  A    between atoms: _102  and  _103
REMARK   44  A    between atoms: _102  and  _105
REMARK   45  A    between atoms: _105  and  _106
REMARK   46  A    between atoms: _106  and  _107
REMARK   47  A    between atoms: _109  and  _111
REMARK   48  A    between atoms: _111  and  _112
REMARK   49  A    between atoms: _111  and  _114
REMARK   50  A    between atoms: _114  and  _115
REMARK   51  A    between atoms: _118  and  _120
REMARK   52  A    between atoms: _120  and  _121
REMARK   53  A    between atoms: _123  and  _125
REMARK   54  A    between atoms: _125  and  _126
REMARK   55  A    between atoms: _128  and  _130
REMARK   56  A    between atoms: _130  and  _131
REMARK   57  A    between atoms: _130  and  _133
REMARK   58  A    between atoms: _133  and  _134
REMARK   59  A    between atoms: _137  and  _139
REMARK   60  A    between atoms: _139  and  _140
REMARK   61  A    between atoms: _142  and  _144
REMARK   62  A    between atoms: _144  and  _145
REMARK   63  A    between atoms: _147  and  _149
REMARK   64  A    between atoms: _149  and  _150
REMARK   65  A    between atoms: _149  and  _152
REMARK   66  A    between atoms: _152  and  _153
REMARK   67  A    between atoms: _159  and  _161
REMARK   68  A    between atoms: _161  and  _162
REMARK   69  A    between atoms: _161  and  _164
REMARK   70  A    between atoms: _164  and  _165
REMARK   71  A    between atoms: _168  and  _170
REMARK   72  A    between atoms: _170  and  _171
REMARK   73  A    between atoms: _170  and  _173
REMARK   74  A    between atoms: _176  and  _178
REMARK   75  A    between atoms: _178  and  _179
REMARK   76  A    between atoms: _178  and  _181
REMARK   77  A    between atoms: _181  and  _182
REMARK   78  A    between atoms: _186  and  _187
REMARK   79  A    between atoms: _192  and  _194
REMARK   80  A    between atoms: _194  and  _195
REMARK   81  A    between atoms: _194  and  _197
REMARK   82  A    between atoms: _197  and  _198
REMARK   83  A    between atoms: _202  and  _203
REMARK   84  A    between atoms: _208  and  _210
REMARK   85  A    between atoms: _210  and  _211
REMARK   86  A    between atoms: _210  and  _213
REMARK   87  A    between atoms: _216  and  _218
REMARK   88  A    between atoms: _218  and  _219
REMARK   89  A    between atoms: _218  and  _221
REMARK   90  A    between atoms: _221  and  _222
REMARK   91  A    between atoms: _227  and  _229
REMARK   92  A    between atoms: _229  and  _230
REMARK   93  A    between atoms: _229  and  _232
REMARK   94  A    between atoms: _232  and  _233
REMARK   95  A    between atoms: _236  and  _238
REMARK   96  A    between atoms: _238  and  _239
REMARK   97  A    between atoms: _238  and  _241
REMARK   98  A    between atoms: _241  and  _242
REMARK   99  A    between atoms: _245  and  _247
REMARK  100  A    between atoms: _247  and  _248
REMARK  101  A    between atoms: _250  and  _252
REMARK  102  A    between atoms: _252  and  _253
REMARK  103  A    between atoms: _252  and  _255
REMARK  104  A    between atoms: _255  and  _256
REMARK  105  A    between atoms: _256  and  _257
REMARK  106  A    between atoms: _257  and  _258
REMARK  107  A    between atoms: _267  and  _269
REMARK  108  A    between atoms: _269  and  _270
REMARK  109  A    between atoms: _269  and  _272
REMARK  110  A    between atoms: _272  and  _273
REMARK  111  A    between atoms: _278  and  _280
REMARK  112  A    between atoms: _280  and  _281
REMARK  113  A    between atoms: _280  and  _283
REMARK  114  A    between atoms: _283  and  _284
REMARK  115  A    between atoms: _284  and  _285
REMARK  116  A    between atoms: _285  and  _286
REMARK  117  A    between atoms: _295  and  _297
REMARK  118  A    between atoms: _297  and  _298
REMARK  119  A    between atoms: _297  and  _300
REMARK  120  A    between atoms: _300  and  _301
REMARK  121  A    between atoms: _304  and  _306
REMARK  122  A    between atoms: _306  and  _307
REMARK  123  A    between atoms: _306  and  _309
REMARK  124  A    between atoms: _309  and  _310
REMARK  125  A    between atoms: _313  and  _315
REMARK  126  A    between atoms: _315  and  _316
REMARK  127  A    between atoms: _315  and  _318
REMARK  128  A    between atoms: _318  and  _319
REMARK  129  A    between atoms: _322  and  _324
REMARK  130  A    between atoms: _324  and  _325
REMARK  131  A    between atoms: _324  and  _327
REMARK  132  A    between atoms: _327  and  _328
REMARK  133  A    between atoms: _331  and  _333
REMARK  134  A    between atoms: _333  and  _334
REMARK  135  A    between atoms: _336  and  _338
REMARK  136  A    between atoms: _338  and  _339
REMARK  137  A    between atoms: _342  and  _344
REMARK  138  A    between atoms: _344  and  _345
REMARK  139  A    between atoms: _344  and  _347
REMARK  140  A    between atoms: _347  and  _348
REMARK  141  A    between atoms: _351  and  _353
REMARK  142  A    between atoms: _353  and  _354
REMARK  143  A    between atoms: _353  and  _356
REMARK  144  A    between atoms: _356  and  _357
REMARK  145  A    between atoms: _360  and  _362
REMARK  146  A    between atoms: _362  and  _363
REMARK  147  A    between atoms: _362  and  _365
REMARK  148  A    between atoms: _365  and  _366
REMARK  149  A    between atoms: _369  and  _371
REMARK  150  A    between atoms: _371  and  _372
REMARK  151  A    between atoms: _371  and  _374
REMARK  152  A    between atoms: _377  and  _379
REMARK  153  A    between atoms: _379  and  _380
REMARK  154  A    between atoms: _379  and  _382
REMARK  155  A    between atoms: _383  and  _384
REMARK  156  A    between atoms: _384  and  _385
REMARK  157  A    between atoms: _385  and  _386
REMARK  158  A    between atoms: _390  and  _392
REMARK  159  A    between atoms: _392  and  _393
REMARK  160  A    between atoms: _392  and  _395
REMARK  161  A    between atoms: _395  and  _396
REMARK  162  A    between atoms: _396  and  _397
REMARK  163  A    between atoms: _399  and  _401
REMARK  164  A    between atoms: _401  and  _402
REMARK  165  A    between atoms: _401  and  _404
REMARK  166  A    between atoms: _404  and  _405
REMARK  167  A    between atoms: _408  and  _410
REMARK  168  A    between atoms: _410  and  _411
REMARK  169  A    between atoms: _413  and  _415
REMARK  170  A    between atoms: _415  and  _416
REMARK  171  A    between atoms: _418  and  _420
REMARK  172  A    between atoms: _420  and  _421
REMARK  173  A    between atoms: _420  and  _423
REMARK  174  A    between atoms: _423  and  _424
REMARK  175  A    between atoms: _427  and  _429
REMARK  176  A    between atoms: _429  and  _430
REMARK  177  A    between atoms: _432  and  _434
REMARK  178  A    between atoms: _434  and  _435
REMARK  179  A    between atoms: _437  and  _439
REMARK  180  A    between atoms: _439  and  _440
REMARK  181  A    between atoms: _439  and  _442
REMARK  182  A    between atoms: _442  and  _443
REMARK  183  A    between atoms: _449  and  _451
REMARK  184  A    between atoms: _451  and  _452
REMARK  185  A    between atoms: _451  and  _454
REMARK  186  A    between atoms: _454  and  _455
REMARK  187  A    between atoms: _458  and  _460
REMARK  188  A    between atoms: _460  and  _461
REMARK  189  A    between atoms: _460  and  _463
REMARK  190  A    between atoms: _466  and  _468
REMARK  191  A    between atoms: _468  and  _469
REMARK  192  A    between atoms: _468  and  _471
REMARK  193  A    between atoms: _471  and  _472
REMARK  194  A    between atoms: _475  and  _477
REMARK  195  A    between atoms: _477  and  _478
REMARK  196  A    between atoms: _477  and  _480
REMARK  197  A    between atoms: _480  and  _481
REMARK  198  A    between atoms: _485  and  _486
REMARK  199  A    between atoms: _491  and  _493
REMARK  200  A    between atoms: _493  and  _494
REMARK  201  A    between atoms: _493  and  _496
REMARK  202  A    between atoms: _499  and  _501
REMARK  203  A    between atoms: _501  and  _502
REMARK  204  A    between atoms: _501  and  _504
REMARK  205  A    between atoms: _504  and  _505
REMARK  206  A    between atoms: _510  and  _512
REMARK  207  A    between atoms: _512  and  _513
REMARK  208  A    between atoms: _512  and  _515
REMARK  209  A    between atoms: _515  and  _516
REMARK  210  A    between atoms: _519  and  _521
REMARK  211  A    between atoms: _521  and  _522
REMARK  212  A    between atoms: _521  and  _524
REMARK  213  A    between atoms: _524  and  _525
REMARK  214  A    between atoms: _528  and  _530
REMARK  215  A    between atoms: _530  and  _531
REMARK  216  A    between atoms: _533  and  _535
REMARK  217  A    between atoms: _535  and  _536
REMARK  218  A    between atoms: _535  and  _538
REMARK  219  A    between atoms: _538  and  _539
REMARK  220  A    between atoms: _539  and  _540
REMARK  221  A    between atoms: _540  and  _541
REMARK  222  A    between atoms: _550  and  _552
REMARK  223  A    between atoms: _552  and  _553
REMARK  224  A    between atoms: _552  and  _555
REMARK  225  A    between atoms: _555  and  _556
REMARK                            x       y       z     vdW  Elec       q    Type
REMARK                         _______ _______ _______ _____ _____    ______ ____
ROOT
ATOM      1  O   HOH     1      22.351  15.710  -2.391  0.00  0.00    +0.000 OA
ENDROOT
TORSDOF 0
REMARK  Name = ../refined-set-2016/1izh/1izh_pocket.pdb
REMARK  225 active torsions:
REMARK  status: ('A' for Active; 'I' for Inactive)
REMARK    1  A    between atoms: _1  and  _3
REMARK    2  A    between atoms: _3  and  _4
REMARK    3  A    between atoms: _3  and  _6
REMARK    4  A    between atoms: _6  and  _7
REMARK    5  A    between atoms: _7  and  _8
REMARK    6  A    between atoms: _8  and  _9
REMARK    7  A    between atoms: _18  and  _20
REMARK    8  A    between atoms: _20  and  _21
REMARK    9  A    between atoms: _20  and  _23
REMARK   10  A    between atoms: _23  and  _24
REMARK   11  A    between atoms: _27  and  _29
REMARK   12  A    between atoms: _29  and  _30
REMARK   13  A    between atoms: _29  and  _32
REMARK   14  A    between atoms: _32  and  _33
REMARK   15  A    between atoms: _36  and  _38
REMARK   16  A    between atoms: _38  and  _39
REMARK   17  A    between atoms: _38  and  _41
REMARK   18  A    between atoms: _41  and  _42
REMARK   19  A    between atoms: _45  and  _47
REMARK   20  A    between atoms: _47  and  _48
REMARK   21  A    between atoms: _47  and  _50
REMARK   22  A    between atoms: _50  and  _51
REMARK   23  A    between atoms: _54  and  _56
REMARK   24  A    between atoms: _56  and  _57
REMARK   25  A    between atoms: _59  and  _61
REMARK   26  A    between atoms: _61  and  _62
REMARK   27  A    between atoms: _65  and  _67
REMARK   28  A    between atoms: _67  and  _68
REMARK   29  A    between atoms: _67  and  _70
REMARK   30  A    between atoms: _70  and  _71
REMARK   31  A    between atoms: _74  and  _76
REMARK   32  A    between atoms: _76  and  _77
REMARK   33  A    between atoms: _76  and  _79
REMARK   34  A    between atoms: _79  and  _80
REMARK   35  A    between atoms: _83  and  _85
REMARK   36  A    between atoms: _85  and  _86
REMARK   37  A    between atoms: _85  and  _88
REMARK   38  A    between atoms: _88  and  _89
REMARK   39  A    between atoms: _92  and  _94
REMARK   40  A    between atoms: _94  and  _95
REMARK   41  A    between atoms: _94  and  _97
REMARK   42  A    between atoms: _100  and  _102
REMARK   43  A    between atoms: _102  and  _103
REMARK   44  A    between atoms: _102  and  _105
REMARK   45  A    between atoms: _105  and  _106
REMARK   46  A    between atoms: _106  and  _107
REMARK   47  A    between atoms: _109  and  _111
REMARK   48  A    between atoms: _111  and  _112
REMARK   49  A    between atoms: _111  and  _114
REMARK   50  A    between atoms: _114  and  _115
REMARK   51  A    between atoms: _118  and  _120
REMARK   52  A    between atoms: _120  and  _121
REMARK   53  A    between atoms: _123  and  _125
REMARK   54  A    between atoms: _125  and  _126
REMARK   55  A    between atoms: _128  and  _130
REMARK   56  A    between atoms: _130  and  _131
REMARK   57  A    between atoms: _130  and  _133
REMARK   58  A    between atoms: _133  and  _134
REMARK   59  A    between atoms: _137  and  _139
REMARK   60  A    between atoms: _139  and  _140
REMARK   61  A    between atoms: _142  and  _144
REMARK   62  A    between atoms: _144  and  _145
REMARK   63  A    between atoms: _147  and  _149
REMARK   64  A    between atoms: _149  and  _150
REMARK   65  A    between atoms: _149  and  _152
REMARK   66  A    between atoms: _152  and  _153
REMARK   67  A    between atoms: _159  and  _161
REMARK   68  A    between atoms: _161  and  _162
REMARK   69  A    between atoms: _161  and  _164
REMARK   70  A    between atoms: _164  and  _165
REMARK   71  A    between atoms: _168  and  _170
REMARK   72  A    between atoms: _170  and  _171
REMARK   73  A    between atoms: _170  and  _173
REMARK   74  A    between atoms: _176  and  _178
REMARK   75  A    between atoms: _178  and  _179
REMARK   76  A    between atoms: _178  and  _181
REMARK   77  A    between atoms: _181  and  _182
REMARK   78  A    between atoms: _186  and  _187
REMARK   79  A    between atoms: _192  and  _194
REMARK   80  A    between atoms: _194  and  _195
REMARK   81  A    between atoms: _194  and  _197
REMARK   82  A    between atoms: _197  and  _198
REMARK   83  A    between atoms: _202  and  _203
REMARK   84  A    between atoms: _208  and  _210
REMARK   85  A    between atoms: _210  and  _211
REMARK   86  A    between atoms: _210  and  _213
REMARK   87  A    between atoms: _216  and  _218
REMARK   88  A    between atoms: _218  and  _219
REMARK   89  A    between atoms: _218  and  _221
REMARK   90  A    between atoms: _221  and  _222
REMARK   91  A    between atoms: _227  and  _229
REMARK   92  A    between atoms: _229  and  _230
REMARK   93  A    between atoms: _229  and  _232
REMARK   94  A    between atoms: _232  and  _233
REMARK   95  A    between atoms: _236  and  _238
REMARK   96  A    between atoms: _238  and  _239
REMARK   97  A    between atoms: _238  and  _241
REMARK   98  A    between atoms: _241  and  _242
REMARK   99  A    between atoms: _245  and  _247
REMARK  100  A    between atoms: _247  and  _248
REMARK  101  A    between atoms: _250  and  _252
REMARK  102  A    between atoms: _252  and  _253
REMARK  103  A    between atoms: _252  and  _255
REMARK  104  A    between atoms: _255  and  _256
REMARK  105  A    between atoms: _256  and  _257
REMARK  106  A    between atoms: _257  and  _258
REMARK  107  A    between atoms: _267  and  _269
REMARK  108  A    between atoms: _269  and  _270
REMARK  109  A    between atoms: _269  and  _272
REMARK  110  A    between atoms: _272  and  _273
REMARK  111  A    between atoms: _278  and  _280
REMARK  112  A    between atoms: _280  and  _281
REMARK  113  A    between atoms: _280  and  _283
REMARK  114  A    between atoms: _283  and  _284
REMARK  115  A    between atoms: _284  and  _285
REMARK  116  A    between atoms: _285  and  _286
REMARK  117  A    between atoms: _295  and  _297
REMARK  118  A    between atoms: _297  and  _298
REMARK  119  A    between atoms: _297  and  _300
REMARK  120  A    between atoms: _300  and  _301
REMARK  121  A    between atoms: _304  and  _306
REMARK  122  A    between atoms: _306  and  _307
REMARK  123  A    between atoms: _306  and  _309
REMARK  124  A    between atoms: _309  and  _310
REMARK  125  A    between atoms: _313  and  _315
REMARK  126  A    between atoms: _315  and  _316
REMARK  127  A    between atoms: _315  and  _318
REMARK  128  A    between atoms: _318  and  _319
REMARK  129  A    between atoms: _322  and  _324
REMARK  130  A    between atoms: _324  and  _325
REMARK  131  A    between atoms: _324  and  _327
REMARK  132  A    between atoms: _327  and  _328
REMARK  133  A    between atoms: _331  and  _333
REMARK  134  A    between atoms: _333  and  _334
REMARK  135  A    between atoms: _336  and  _338
REMARK  136  A    between atoms: _338  and  _339
REMARK  137  A    between atoms: _342  and  _344
REMARK  138  A    between atoms: _344  and  _345
REMARK  139  A    between atoms: _344  and  _347
REMARK  140  A    between atoms: _347  and  _348
REMARK  141  A    between atoms: _351  and  _353
REMARK  142  A    between atoms: _353  and  _354
REMARK  143  A    between atoms: _353  and  _356
REMARK  144  A    between atoms: _356  and  _357
REMARK  145  A    between atoms: _360  and  _362
REMARK  146  A    between atoms: _362  and  _363
REMARK  147  A    between atoms: _362  and  _365
REMARK  148  A    between atoms: _365  and  _366
REMARK  149  A    between atoms: _369  and  _371
REMARK  150  A    between atoms: _371  and  _372
REMARK  151  A    between atoms: _371  and  _374
REMARK  152  A    between atoms: _377  and  _379
REMARK  153  A    between atoms: _379  and  _380
REMARK  154  A    between atoms: _379  and  _382
REMARK  155  A    between atoms: _383  and  _384
REMARK  156  A    between atoms: _384  and  _385
REMARK  157  A    between atoms: _385  and  _386
REMARK  158  A    between atoms: _390  and  _392
REMARK  159  A    between atoms: _392  and  _393
REMARK  160  A    between atoms: _392  and  _395
REMARK  161  A    between atoms: _395  and  _396
REMARK  162  A    between atoms: _396  and  _397
REMARK  163  A    between atoms: _399  and  _401
REMARK  164  A    between atoms: _401  and  _402
REMARK  165  A    between atoms: _401  and  _404
REMARK  166  A    between atoms: _404  and  _405
REMARK  167  A    between atoms: _408  and  _410
REMARK  168  A    between atoms: _410  and  _411
REMARK  169  A    between atoms: _413  and  _415
REMARK  170  A    between atoms: _415  and  _416
REMARK  171  A    between atoms: _418  and  _420
REMARK  172  A    between atoms: _420  and  _421
REMARK  173  A    between atoms: _420  and  _423
REMARK  174  A    between atoms: _423  and  _424
REMARK  175  A    between atoms: _427  and  _429
REMARK  176  A    between atoms: _429  and  _430
REMARK  177  A    between atoms: _432  and  _434
REMARK  178  A    between atoms: _434  and  _435
REMARK  179  A    between atoms: _437  and  _439
REMARK  180  A    between atoms: _439  and  _440
REMARK  181  A    between atoms: _439  and  _442
REMARK  182  A    between atoms: _442  and  _443
REMARK  183  A    between atoms: _449  and  _451
REMARK  184  A    between atoms: _451  and  _452
REMARK  185  A    between atoms: _451  and  _454
REMARK  186  A    between atoms: _454  and  _455
REMARK  187  A    between atoms: _458  and  _460
REMARK  188  A    between atoms: _460  and  _461
REMARK  189  A    between atoms: _460  and  _463
REMARK  190  A    between atoms: _466  and  _468
REMARK  191  A    between atoms: _468  and  _469
REMARK  192  A    between atoms: _468  and  _471
REMARK  193  A    between atoms: _471  and  _472
REMARK  194  A    between atoms: _475  and  _477
REMARK  195  A    between atoms: _477  and  _478
REMARK  196  A    between atoms: _477  and  _480
REMARK  197  A    between atoms: _480  and  _481
REMARK  198  A    between atoms: _485  and  _486
REMARK  199  A    between atoms: _491  and  _493
REMARK  200  A    between atoms: _493  and  _494
REMARK  201  A    between atoms: _493  and  _496
REMARK  202  A    between atoms: _499  and  _501
REMARK  203  A    between atoms: _501  and  _502
REMARK  204  A    between atoms: _501  and  _504
REMARK  205  A    between atoms: _504  and  _505
REMARK  206  A    between atoms: _510  and  _512
REMARK  207  A    between atoms: _512  and  _513
REMARK  208  A    between atoms: _512  and  _515
REMARK  209  A    between atoms: _515  and  _516
REMARK  210  A    between atoms: _519  and  _521
REMARK  211  A    between atoms: _521  and  _522
REMARK  212  A    between atoms: _521  and  _524
REMARK  213  A    between atoms: _524  and  _525
REMARK  214  A    between atoms: _528  and  _530
REMARK  215  A    between atoms: _530  and  _531
REMARK  216  A    between atoms: _533  and  _535
REMARK  217  A    between atoms: _535  and  _536
REMARK  218  A    between atoms: _535  and  _538
REMARK  219  A    between atoms: _538  and  _539
REMARK  220  A    between atoms: _539  and  _540
REMARK  221  A    between atoms: _540  and  _541
REMARK  222  A    between atoms: _550  and  _552
REMARK  223  A    between atoms: _552  and  _553
REMARK  224  A    between atoms: _552  and  _555
REMARK  225  A    between atoms: _555  and  _556
REMARK                            x       y       z     vdW  Elec       q    Type
REMARK                         _______ _______ _______ _____ _____    ______ ____
ROOT
ATOM      1  O   HOH     1      22.393  12.643  -1.493  0.00  0.00    +0.000 OA
ENDROOT
TORSDOF 0
REMARK  Name = ../refined-set-2016/1izh/1izh_pocket.pdb
REMARK  225 active torsions:
REMARK  status: ('A' for Active; 'I' for Inactive)
REMARK    1  A    between atoms: _1  and  _3
REMARK    2  A    between atoms: _3  and  _4
REMARK    3  A    between atoms: _3  and  _6
REMARK    4  A    between atoms: _6  and  _7
REMARK    5  A    between atoms: _7  and  _8
REMARK    6  A    between atoms: _8  and  _9
REMARK    7  A    between atoms: _18  and  _20
REMARK    8  A    between atoms: _20  and  _21
REMARK    9  A    between atoms: _20  and  _23
REMARK   10  A    between atoms: _23  and  _24
REMARK   11  A    between atoms: _27  and  _29
REMARK   12  A    between atoms: _29  and  _30
REMARK   13  A    between atoms: _29  and  _32
REMARK   14  A    between atoms: _32  and  _33
REMARK   15  A    between atoms: _36  and  _38
REMARK   16  A    between atoms: _38  and  _39
REMARK   17  A    between atoms: _38  and  _41
REMARK   18  A    between atoms: _41  and  _42
REMARK   19  A    between atoms: _45  and  _47
REMARK   20  A    between atoms: _47  and  _48
REMARK   21  A    between atoms: _47  and  _50
REMARK   22  A    between atoms: _50  and  _51
REMARK   23  A    between atoms: _54  and  _56
REMARK   24  A    between atoms: _56  and  _57
REMARK   25  A    between atoms: _59  and  _61
REMARK   26  A    between atoms: _61  and  _62
REMARK   27  A    between atoms: _65  and  _67
REMARK   28  A    between atoms: _67  and  _68
REMARK   29  A    between atoms: _67  and  _70
REMARK   30  A    between atoms: _70  and  _71
REMARK   31  A    between atoms: _74  and  _76
REMARK   32  A    between atoms: _76  and  _77
REMARK   33  A    between atoms: _76  and  _79
REMARK   34  A    between atoms: _79  and  _80
REMARK   35  A    between atoms: _83  and  _85
REMARK   36  A    between atoms: _85  and  _86
REMARK   37  A    between atoms: _85  and  _88
REMARK   38  A    between atoms: _88  and  _89
REMARK   39  A    between atoms: _92  and  _94
REMARK   40  A    between atoms: _94  and  _95
REMARK   41  A    between atoms: _94  and  _97
REMARK   42  A    between atoms: _100  and  _102
REMARK   43  A    between atoms: _102  and  _103
REMARK   44  A    between atoms: _102  and  _105
REMARK   45  A    between atoms: _105  and  _106
REMARK   46  A    between atoms: _106  and  _107
REMARK   47  A    between atoms: _109  and  _111
REMARK   48  A    between atoms: _111  and  _112
REMARK   49  A    between atoms: _111  and  _114
REMARK   50  A    between atoms: _114  and  _115
REMARK   51  A    between atoms: _118  and  _120
REMARK   52  A    between atoms: _120  and  _121
REMARK   53  A    between atoms: _123  and  _125
REMARK   54  A    between atoms: _125  and  _126
REMARK   55  A    between atoms: _128  and  _130
REMARK   56  A    between atoms: _130  and  _131
REMARK   57  A    between atoms: _130  and  _133
REMARK   58  A    between atoms: _133  and  _134
REMARK   59  A    between atoms: _137  and  _139
REMARK   60  A    between atoms: _139  and  _140
REMARK   61  A    between atoms: _142  and  _144
REMARK   62  A    between atoms: _144  and  _145
REMARK   63  A    between atoms: _147  and  _149
REMARK   64  A    between atoms: _149  and  _150
REMARK   65  A    between atoms: _149  and  _152
REMARK   66  A    between atoms: _152  and  _153
REMARK   67  A    between atoms: _159  and  _161
REMARK   68  A    between atoms: _161  and  _162
REMARK   69  A    between atoms: _161  and  _164
REMARK   70  A    between atoms: _164  and  _165
REMARK   71  A    between atoms: _168  and  _170
REMARK   72  A    between atoms: _170  and  _171
REMARK   73  A    between atoms: _170  and  _173
REMARK   74  A    between atoms: _176  and  _178
REMARK   75  A    between atoms: _178  and  _179
REMARK   76  A    between atoms: _178  and  _181
REMARK   77  A    between atoms: _181  and  _182
REMARK   78  A    between atoms: _186  and  _187
REMARK   79  A    between atoms: _192  and  _194
REMARK   80  A    between atoms: _194  and  _195
REMARK   81  A    between atoms: _194  and  _197
REMARK   82  A    between atoms: _197  and  _198
REMARK   83  A    between atoms: _202  and  _203
REMARK   84  A    between atoms: _208  and  _210
REMARK   85  A    between atoms: _210  and  _211
REMARK   86  A    between atoms: _210  and  _213
REMARK   87  A    between atoms: _216  and  _218
REMARK   88  A    between atoms: _218  and  _219
REMARK   89  A    between atoms: _218  and  _221
REMARK   90  A    between atoms: _221  and  _222
REMARK   91  A    between atoms: _227  and  _229
REMARK   92  A    between atoms: _229  and  _230
REMARK   93  A    between atoms: _229  and  _232
REMARK   94  A    between atoms: _232  and  _233
REMARK   95  A    between atoms: _236  and  _238
REMARK   96  A    between atoms: _238  and  _239
REMARK   97  A    between atoms: _238  and  _241
REMARK   98  A    between atoms: _241  and  _242
REMARK   99  A    between atoms: _245  and  _247
REMARK  100  A    between atoms: _247  and  _248
REMARK  101  A    between atoms: _250  and  _252
REMARK  102  A    between atoms: _252  and  _253
REMARK  103  A    between atoms: _252  and  _255
REMARK  104  A    between atoms: _255  and  _256
REMARK  105  A    between atoms: _256  and  _257
REMARK  106  A    between atoms: _257  and  _258
REMARK  107  A    between atoms: _267  and  _269
REMARK  108  A    between atoms: _269  and  _270
REMARK  109  A    between atoms: _269  and  _272
REMARK  110  A    between atoms: _272  and  _273
REMARK  111  A    between atoms: _278  and  _280
REMARK  112  A    between atoms: _280  and  _281
REMARK  113  A    between atoms: _280  and  _283
REMARK  114  A    between atoms: _283  and  _284
REMARK  115  A    between atoms: _284  and  _285
REMARK  116  A    between atoms: _285  and  _286
REMARK  117  A    between atoms: _295  and  _297
REMARK  118  A    between atoms: _297  and  _298
REMARK  119  A    between atoms: _297  and  _300
REMARK  120  A    between atoms: _300  and  _301
REMARK  121  A    between atoms: _304  and  _306
REMARK  122  A    between atoms: _306  and  _307
REMARK  123  A    between atoms: _306  and  _309
REMARK  124  A    between atoms: _309  and  _310
REMARK  125  A    between atoms: _313  and  _315
REMARK  126  A    between atoms: _315  and  _316
REMARK  127  A    between atoms: _315  and  _318
REMARK  128  A    between atoms: _318  and  _319
REMARK  129  A    between atoms: _322  and  _324
REMARK  130  A    between atoms: _324  and  _325
REMARK  131  A    between atoms: _324  and  _327
REMARK  132  A    between atoms: _327  and  _328
REMARK  133  A    between atoms: _331  and  _333
REMARK  134  A    between atoms: _333  and  _334
REMARK  135  A    between atoms: _336  and  _338
REMARK  136  A    between atoms: _338  and  _339
REMARK  137  A    between atoms: _342  and  _344
REMARK  138  A    between atoms: _344  and  _345
REMARK  139  A    between atoms: _344  and  _347
REMARK  140  A    between atoms: _347  and  _348
REMARK  141  A    between atoms: _351  and  _353
REMARK  142  A    between atoms: _353  and  _354
REMARK  143  A    between atoms: _353  and  _356
REMARK  144  A    between atoms: _356  and  _357
REMARK  145  A    between atoms: _360  and  _362
REMARK  146  A    between atoms: _362  and  _363
REMARK  147  A    between atoms: _362  and  _365
REMARK  148  A    between atoms: _365  and  _366
REMARK  149  A    between atoms: _369  and  _371
REMARK  150  A    between atoms: _371  and  _372
REMARK  151  A    between atoms: _371  and  _374
REMARK  152  A    between atoms: _377  and  _379
REMARK  153  A    between atoms: _379  and  _380
REMARK  154  A    between atoms: _379  and  _382
REMARK  155  A    between atoms: _383  and  _384
REMARK  156  A    between atoms: _384  and  _385
REMARK  157  A    between atoms: _385  and  _386
REMARK  158  A    between atoms: _390  and  _392
REMARK  159  A    between atoms: _392  and  _393
REMARK  160  A    between atoms: _392  and  _395
REMARK  161  A    between atoms: _395  and  _396
REMARK  162  A    between atoms: _396  and  _397
REMARK  163  A    between atoms: _399  and  _401
REMARK  164  A    between atoms: _401  and  _402
REMARK  165  A    between atoms: _401  and  _404
REMARK  166  A    between atoms: _404  and  _405
REMARK  167  A    between atoms: _408  and  _410
REMARK  168  A    between atoms: _410  and  _411
REMARK  169  A    between atoms: _413  and  _415
REMARK  170  A    between atoms: _415  and  _416
REMARK  171  A    between atoms: _418  and  _420
REMARK  172  A    between atoms: _420  and  _421
REMARK  173  A    between atoms: _420  and  _423
REMARK  174  A    between atoms: _423  and  _424
REMARK  175  A    between atoms: _427  and  _429
REMARK  176  A    between atoms: _429  and  _430
REMARK  177  A    between atoms: _432  and  _434
REMARK  178  A    between atoms: _434  and  _435
REMARK  179  A    between atoms: _437  and  _439
REMARK  180  A    between atoms: _439  and  _440
REMARK  181  A    between atoms: _439  and  _442
REMARK  182  A    between atoms: _442  and  _443
REMARK  183  A    between atoms: _449  and  _451
REMARK  184  A    between atoms: _451  and  _452
REMARK  185  A    between atoms: _451  and  _454
REMARK  186  A    between atoms: _454  and  _455
REMARK  187  A    between atoms: _458  and  _460
REMARK  188  A    between atoms: _460  and  _461
REMARK  189  A    between atoms: _460  and  _463
REMARK  190  A    between atoms: _466  and  _468
REMARK  191  A    between atoms: _468  and  _469
REMARK  192  A    between atoms: _468  and  _471
REMARK  193  A    between atoms: _471  and  _472
REMARK  194  A    between atoms: _475  and  _477
REMARK  195  A    between atoms: _477  and  _478
REMARK  196  A    between atoms: _477  and  _480
REMARK  197  A    between atoms: _480  and  _481
REMARK  198  A    between atoms: _485  and  _486
REMARK  199  A    between atoms: _491  and  _493
REMARK  200  A    between atoms: _493  and  _494
REMARK  201  A    between atoms: _493  and  _496
REMARK  202  A    between atoms: _499  and  _501
REMARK  203  A    between atoms: _501  and  _502
REMARK  204  A    between atoms: _501  and  _504
REMARK  205  A    between atoms: _504  and  _505
REMARK  206  A    between atoms: _510  and  _512
REMARK  207  A    between atoms: _512  and  _513
REMARK  208  A    between atoms: _512  and  _515
REMARK  209  A    between atoms: _515  and  _516
REMARK  210  A    between atoms: _519  and  _521
REMARK  211  A    between atoms: _521  and  _522
REMARK  212  A    between atoms: _521  and  _524
REMARK  213  A    between atoms: _524  and  _525
REMARK  214  A    between atoms: _528  and  _530
REMARK  215  A    between atoms: _530  and  _531
REMARK  216  A    between atoms: _533  and  _535
REMARK  217  A    between atoms: _535  and  _536
REMARK  218  A    between atoms: _535  and  _538
REMARK  219  A    between atoms: _538  and  _539
REMARK  220  A    between atoms: _539  and  _540
REMARK  221  A    between atoms: _540  and  _541
REMARK  222  A    between atoms: _550  and  _552
REMARK  223  A    between atoms: _552  and  _553
REMARK  224  A    between atoms: _552  and  _555
REMARK  225  A    between atoms: _555  and  _556
REMARK                            x       y       z     vdW  Elec       q    Type
REMARK                         _______ _______ _______ _____ _____    ______ ____
ROOT
ATOM      1  O   HOH     1       3.884  30.271   6.188  0.00  0.00    +0.000 OA
ENDROOT
TORSDOF 0
REMARK  Name = ../refined-set-2016/1izh/1izh_pocket.pdb
REMARK  225 active torsions:
REMARK  status: ('A' for Active; 'I' for Inactive)
REMARK    1  A    between atoms: _1  and  _3
REMARK    2  A    between atoms: _3  and  _4
REMARK    3  A    between atoms: _3  and  _6
REMARK    4  A    between atoms: _6  and  _7
REMARK    5  A    between atoms: _7  and  _8
REMARK    6  A    between atoms: _8  and  _9
REMARK    7  A    between atoms: _18  and  _20
REMARK    8  A    between atoms: _20  and  _21
REMARK    9  A    between atoms: _20  and  _23
REMARK   10  A    between atoms: _23  and  _24
REMARK   11  A    between atoms: _27  and  _29
REMARK   12  A    between atoms: _29  and  _30
REMARK   13  A    between atoms: _29  and  _32
REMARK   14  A    between atoms: _32  and  _33
REMARK   15  A    between atoms: _36  and  _38
REMARK   16  A    between atoms: _38  and  _39
REMARK   17  A    between atoms: _38  and  _41
REMARK   18  A    between atoms: _41  and  _42
REMARK   19  A    between atoms: _45  and  _47
REMARK   20  A    between atoms: _47  and  _48
REMARK   21  A    between atoms: _47  and  _50
REMARK   22  A    between atoms: _50  and  _51
REMARK   23  A    between atoms: _54  and  _56
REMARK   24  A    between atoms: _56  and  _57
REMARK   25  A    between atoms: _59  and  _61
REMARK   26  A    between atoms: _61  and  _62
REMARK   27  A    between atoms: _65  and  _67
REMARK   28  A    between atoms: _67  and  _68
REMARK   29  A    between atoms: _67  and  _70
REMARK   30  A    between atoms: _70  and  _71
REMARK   31  A    between atoms: _74  and  _76
REMARK   32  A    between atoms: _76  and  _77
REMARK   33  A    between atoms: _76  and  _79
REMARK   34  A    between atoms: _79  and  _80
REMARK   35  A    between atoms: _83  and  _85
REMARK   36  A    between atoms: _85  and  _86
REMARK   37  A    between atoms: _85  and  _88
REMARK   38  A    between atoms: _88  and  _89
REMARK   39  A    between atoms: _92  and  _94
REMARK   40  A    between atoms: _94  and  _95
REMARK   41  A    between atoms: _94  and  _97
REMARK   42  A    between atoms: _100  and  _102
REMARK   43  A    between atoms: _102  and  _103
REMARK   44  A    between atoms: _102  and  _105
REMARK   45  A    between atoms: _105  and  _106
REMARK   46  A    between atoms: _106  and  _107
REMARK   47  A    between atoms: _109  and  _111
REMARK   48  A    between atoms: _111  and  _112
REMARK   49  A    between atoms: _111  and  _114
REMARK   50  A    between atoms: _114  and  _115
REMARK   51  A    between atoms: _118  and  _120
REMARK   52  A    between atoms: _120  and  _121
REMARK   53  A    between atoms: _123  and  _125
REMARK   54  A    between atoms: _125  and  _126
REMARK   55  A    between atoms: _128  and  _130
REMARK   56  A    between atoms: _130  and  _131
REMARK   57  A    between atoms: _130  and  _133
REMARK   58  A    between atoms: _133  and  _134
REMARK   59  A    between atoms: _137  and  _139
REMARK   60  A    between atoms: _139  and  _140
REMARK   61  A    between atoms: _142  and  _144
REMARK   62  A    between atoms: _144  and  _145
REMARK   63  A    between atoms: _147  and  _149
REMARK   64  A    between atoms: _149  and  _150
REMARK   65  A    between atoms: _149  and  _152
REMARK   66  A    between atoms: _152  and  _153
REMARK   67  A    between atoms: _159  and  _161
REMARK   68  A    between atoms: _161  and  _162
REMARK   69  A    between atoms: _161  and  _164
REMARK   70  A    between atoms: _164  and  _165
REMARK   71  A    between atoms: _168  and  _170
REMARK   72  A    between atoms: _170  and  _171
REMARK   73  A    between atoms: _170  and  _173
REMARK   74  A    between atoms: _176  and  _178
REMARK   75  A    between atoms: _178  and  _179
REMARK   76  A    between atoms: _178  and  _181
REMARK   77  A    between atoms: _181  and  _182
REMARK   78  A    between atoms: _186  and  _187
REMARK   79  A    between atoms: _192  and  _194
REMARK   80  A    between atoms: _194  and  _195
REMARK   81  A    between atoms: _194  and  _197
REMARK   82  A    between atoms: _197  and  _198
REMARK   83  A    between atoms: _202  and  _203
REMARK   84  A    between atoms: _208  and  _210
REMARK   85  A    between atoms: _210  and  _211
REMARK   86  A    between atoms: _210  and  _213
REMARK   87  A    between atoms: _216  and  _218
REMARK   88  A    between atoms: _218  and  _219
REMARK   89  A    between atoms: _218  and  _221
REMARK   90  A    between atoms: _221  and  _222
REMARK   91  A    between atoms: _227  and  _229
REMARK   92  A    between atoms: _229  and  _230
REMARK   93  A    between atoms: _229  and  _232
REMARK   94  A    between atoms: _232  and  _233
REMARK   95  A    between atoms: _236  and  _238
REMARK   96  A    between atoms: _238  and  _239
REMARK   97  A    between atoms: _238  and  _241
REMARK   98  A    between atoms: _241  and  _242
REMARK   99  A    between atoms: _245  and  _247
REMARK  100  A    between atoms: _247  and  _248
REMARK  101  A    between atoms: _250  and  _252
REMARK  102  A    between atoms: _252  and  _253
REMARK  103  A    between atoms: _252  and  _255
REMARK  104  A    between atoms: _255  and  _256
REMARK  105  A    between atoms: _256  and  _257
REMARK  106  A    between atoms: _257  and  _258
REMARK  107  A    between atoms: _267  and  _269
REMARK  108  A    between atoms: _269  and  _270
REMARK  109  A    between atoms: _269  and  _272
REMARK  110  A    between atoms: _272  and  _273
REMARK  111  A    between atoms: _278  and  _280
REMARK  112  A    between atoms: _280  and  _281
REMARK  113  A    between atoms: _280  and  _283
REMARK  114  A    between atoms: _283  and  _284
REMARK  115  A    between atoms: _284  and  _285
REMARK  116  A    between atoms: _285  and  _286
REMARK  117  A    between atoms: _295  and  _297
REMARK  118  A    between atoms: _297  and  _298
REMARK  119  A    between atoms: _297  and  _300
REMARK  120  A    between atoms: _300  and  _301
REMARK  121  A    between atoms: _304  and  _306
REMARK  122  A    between atoms: _306  and  _307
REMARK  123  A    between atoms: _306  and  _309
REMARK  124  A    between atoms: _309  and  _310
REMARK  125  A    between atoms: _313  and  _315
REMARK  126  A    between atoms: _315  and  _316
REMARK  127  A    between atoms: _315  and  _318
REMARK  128  A    between atoms: _318  and  _319
REMARK  129  A    between atoms: _322  and  _324
REMARK  130  A    between atoms: _324  and  _325
REMARK  131  A    between atoms: _324  and  _327
REMARK  132  A    between atoms: _327  and  _328
REMARK  133  A    between atoms: _331  and  _333
REMARK  134  A    between atoms: _333  and  _334
REMARK  135  A    between atoms: _336  and  _338
REMARK  136  A    between atoms: _338  and  _339
REMARK  137  A    between atoms: _342  and  _344
REMARK  138  A    between atoms: _344  and  _345
REMARK  139  A    between atoms: _344  and  _347
REMARK  140  A    between atoms: _347  and  _348
REMARK  141  A    between atoms: _351  and  _353
REMARK  142  A    between atoms: _353  and  _354
REMARK  143  A    between atoms: _353  and  _356
REMARK  144  A    between atoms: _356  and  _357
REMARK  145  A    between atoms: _360  and  _362
REMARK  146  A    between atoms: _362  and  _363
REMARK  147  A    between atoms: _362  and  _365
REMARK  148  A    between atoms: _365  and  _366
REMARK  149  A    between atoms: _369  and  _371
REMARK  150  A    between atoms: _371  and  _372
REMARK  151  A    between atoms: _371  and  _374
REMARK  152  A    between atoms: _377  and  _379
REMARK  153  A    between atoms: _379  and  _380
REMARK  154  A    between atoms: _379  and  _382
REMARK  155  A    between atoms: _383  and  _384
REMARK  156  A    between atoms: _384  and  _385
REMARK  157  A    between atoms: _385  and  _386
REMARK  158  A    between atoms: _390  and  _392
REMARK  159  A    between atoms: _392  and  _393
REMARK  160  A    between atoms: _392  and  _395
REMARK  161  A    between atoms: _395  and  _396
REMARK  162  A    between atoms: _396  and  _397
REMARK  163  A    between atoms: _399  and  _401
REMARK  164  A    between atoms: _401  and  _402
REMARK  165  A    between atoms: _401  and  _404
REMARK  166  A    between atoms: _404  and  _405
REMARK  167  A    between atoms: _408  and  _410
REMARK  168  A    between atoms: _410  and  _411
REMARK  169  A    between atoms: _413  and  _415
REMARK  170  A    between atoms: _415  and  _416
REMARK  171  A    between atoms: _418  and  _420
REMARK  172  A    between atoms: _420  and  _421
REMARK  173  A    between atoms: _420  and  _423
REMARK  174  A    between atoms: _423  and  _424
REMARK  175  A    between atoms: _427  and  _429
REMARK  176  A    between atoms: _429  and  _430
REMARK  177  A    between atoms: _432  and  _434
REMARK  178  A    between atoms: _434  and  _435
REMARK  179  A    between atoms: _437  and  _439
REMARK  180  A    between atoms: _439  and  _440
REMARK  181  A    between atoms: _439  and  _442
REMARK  182  A    between atoms: _442  and  _443
REMARK  183  A    between atoms: _449  and  _451
REMARK  184  A    between atoms: _451  and  _452
REMARK  185  A    between atoms: _451  and  _454
REMARK  186  A    between atoms: _454  and  _455
REMARK  187  A    between atoms: _458  and  _460
REMARK  188  A    between atoms: _460  and  _461
REMARK  189  A    between atoms: _460  and  _463
REMARK  190  A    between atoms: _466  and  _468
REMARK  191  A    between atoms: _468  and  _469
REMARK  192  A    between atoms: _468  and  _471
REMARK  193  A    between atoms: _471  and  _472
REMARK  194  A    between atoms: _475  and  _477
REMARK  195  A    between atoms: _477  and  _478
REMARK  196  A    between atoms: _477  and  _480
REMARK  197  A    between atoms: _480  and  _481
REMARK  198  A    between atoms: _485  and  _486
REMARK  199  A    between atoms: _491  and  _493
REMARK  200  A    between atoms: _493  and  _494
REMARK  201  A    between atoms: _493  and  _496
REMARK  202  A    between atoms: _499  and  _501
REMARK  203  A    between atoms: _501  and  _502
REMARK  204  A    between atoms: _501  and  _504
REMARK  205  A    between atoms: _504  and  _505
REMARK  206  A    between atoms: _510  and  _512
REMARK  207  A    between atoms: _512  and  _513
REMARK  208  A    between atoms: _512  and  _515
REMARK  209  A    between atoms: _515  and  _516
REMARK  210  A    between atoms: _519  and  _521
REMARK  211  A    between atoms: _521  and  _522
REMARK  212  A    between atoms: _521  and  _524
REMARK  213  A    between atoms: _524  and  _525
REMARK  214  A    between atoms: _528  and  _530
REMARK  215  A    between atoms: _530  and  _531
REMARK  216  A    between atoms: _533  and  _535
REMARK  217  A    between atoms: _535  and  _536
REMARK  218  A    between atoms: _535  and  _538
REMARK  219  A    between atoms: _538  and  _539
REMARK  220  A    between atoms: _539  and  _540
REMARK  221  A    between atoms: _540  and  _541
REMARK  222  A    between atoms: _550  and  _552
REMARK  223  A    between atoms: _552  and  _553
REMARK  224  A    between atoms: _552  and  _555
REMARK  225  A    between atoms: _555  and  _556
REMARK                            x       y       z     vdW  Elec       q    Type
REMARK                         _______ _______ _______ _____ _____    ______ ____
ROOT
ATOM      1  O   HOH     1      22.168  15.647   5.013  0.00  0.00    +0.000 OA
ENDROOT
TORSDOF 0
REMARK  Name = ../refined-set-2016/1izh/1izh_pocket.pdb
REMARK  225 active torsions:
REMARK  status: ('A' for Active; 'I' for Inactive)
REMARK    1  A    between atoms: _1  and  _3
REMARK    2  A    between atoms: _3  and  _4
REMARK    3  A    between atoms: _3  and  _6
REMARK    4  A    between atoms: _6  and  _7
REMARK    5  A    between atoms: _7  and  _8
REMARK    6  A    between atoms: _8  and  _9
REMARK    7  A    between atoms: _18  and  _20
REMARK    8  A    between atoms: _20  and  _21
REMARK    9  A    between atoms: _20  and  _23
REMARK   10  A    between atoms: _23  and  _24
REMARK   11  A    between atoms: _27  and  _29
REMARK   12  A    between atoms: _29  and  _30
REMARK   13  A    between atoms: _29  and  _32
REMARK   14  A    between atoms: _32  and  _33
REMARK   15  A    between atoms: _36  and  _38
REMARK   16  A    between atoms: _38  and  _39
REMARK   17  A    between atoms: _38  and  _41
REMARK   18  A    between atoms: _41  and  _42
REMARK   19  A    between atoms: _45  and  _47
REMARK   20  A    between atoms: _47  and  _48
REMARK   21  A    between atoms: _47  and  _50
REMARK   22  A    between atoms: _50  and  _51
REMARK   23  A    between atoms: _54  and  _56
REMARK   24  A    between atoms: _56  and  _57
REMARK   25  A    between atoms: _59  and  _61
REMARK   26  A    between atoms: _61  and  _62
REMARK   27  A    between atoms: _65  and  _67
REMARK   28  A    between atoms: _67  and  _68
REMARK   29  A    between atoms: _67  and  _70
REMARK   30  A    between atoms: _70  and  _71
REMARK   31  A    between atoms: _74  and  _76
REMARK   32  A    between atoms: _76  and  _77
REMARK   33  A    between atoms: _76  and  _79
REMARK   34  A    between atoms: _79  and  _80
REMARK   35  A    between atoms: _83  and  _85
REMARK   36  A    between atoms: _85  and  _86
REMARK   37  A    between atoms: _85  and  _88
REMARK   38  A    between atoms: _88  and  _89
REMARK   39  A    between atoms: _92  and  _94
REMARK   40  A    between atoms: _94  and  _95
REMARK   41  A    between atoms: _94  and  _97
REMARK   42  A    between atoms: _100  and  _102
REMARK   43  A    between atoms: _102  and  _103
REMARK   44  A    between atoms: _102  and  _105
REMARK   45  A    between atoms: _105  and  _106
REMARK   46  A    between atoms: _106  and  _107
REMARK   47  A    between atoms: _109  and  _111
REMARK   48  A    between atoms: _111  and  _112
REMARK   49  A    between atoms: _111  and  _114
REMARK   50  A    between atoms: _114  and  _115
REMARK   51  A    between atoms: _118  and  _120
REMARK   52  A    between atoms: _120  and  _121
REMARK   53  A    between atoms: _123  and  _125
REMARK   54  A    between atoms: _125  and  _126
REMARK   55  A    between atoms: _128  and  _130
REMARK   56  A    between atoms: _130  and  _131
REMARK   57  A    between atoms: _130  and  _133
REMARK   58  A    between atoms: _133  and  _134
REMARK   59  A    between atoms: _137  and  _139
REMARK   60  A    between atoms: _139  and  _140
REMARK   61  A    between atoms: _142  and  _144
REMARK   62  A    between atoms: _144  and  _145
REMARK   63  A    between atoms: _147  and  _149
REMARK   64  A    between atoms: _149  and  _150
REMARK   65  A    between atoms: _149  and  _152
REMARK   66  A    between atoms: _152  and  _153
REMARK   67  A    between atoms: _159  and  _161
REMARK   68  A    between atoms: _161  and  _162
REMARK   69  A    between atoms: _161  and  _164
REMARK   70  A    between atoms: _164  and  _165
REMARK   71  A    between atoms: _168  and  _170
REMARK   72  A    between atoms: _170  and  _171
REMARK   73  A    between atoms: _170  and  _173
REMARK   74  A    between atoms: _176  and  _178
REMARK   75  A    between atoms: _178  and  _179
REMARK   76  A    between atoms: _178  and  _181
REMARK   77  A    between atoms: _181  and  _182
REMARK   78  A    between atoms: _186  and  _187
REMARK   79  A    between atoms: _192  and  _194
REMARK   80  A    between atoms: _194  and  _195
REMARK   81  A    between atoms: _194  and  _197
REMARK   82  A    between atoms: _197  and  _198
REMARK   83  A    between atoms: _202  and  _203
REMARK   84  A    between atoms: _208  and  _210
REMARK   85  A    between atoms: _210  and  _211
REMARK   86  A    between atoms: _210  and  _213
REMARK   87  A    between atoms: _216  and  _218
REMARK   88  A    between atoms: _218  and  _219
REMARK   89  A    between atoms: _218  and  _221
REMARK   90  A    between atoms: _221  and  _222
REMARK   91  A    between atoms: _227  and  _229
REMARK   92  A    between atoms: _229  and  _230
REMARK   93  A    between atoms: _229  and  _232
REMARK   94  A    between atoms: _232  and  _233
REMARK   95  A    between atoms: _236  and  _238
REMARK   96  A    between atoms: _238  and  _239
REMARK   97  A    between atoms: _238  and  _241
REMARK   98  A    between atoms: _241  and  _242
REMARK   99  A    between atoms: _245  and  _247
REMARK  100  A    between atoms: _247  and  _248
REMARK  101  A    between atoms: _250  and  _252
REMARK  102  A    between atoms: _252  and  _253
REMARK  103  A    between atoms: _252  and  _255
REMARK  104  A    between atoms: _255  and  _256
REMARK  105  A    between atoms: _256  and  _257
REMARK  106  A    between atoms: _257  and  _258
REMARK  107  A    between atoms: _267  and  _269
REMARK  108  A    between atoms: _269  and  _270
REMARK  109  A    between atoms: _269  and  _272
REMARK  110  A    between atoms: _272  and  _273
REMARK  111  A    between atoms: _278  and  _280
REMARK  112  A    between atoms: _280  and  _281
REMARK  113  A    between atoms: _280  and  _283
REMARK  114  A    between atoms: _283  and  _284
REMARK  115  A    between atoms: _284  and  _285
REMARK  116  A    between atoms: _285  and  _286
REMARK  117  A    between atoms: _295  and  _297
REMARK  118  A    between atoms: _297  and  _298
REMARK  119  A    between atoms: _297  and  _300
REMARK  120  A    between atoms: _300  and  _301
REMARK  121  A    between atoms: _304  and  _306
REMARK  122  A    between atoms: _306  and  _307
REMARK  123  A    between atoms: _306  and  _309
REMARK  124  A    between atoms: _309  and  _310
REMARK  125  A    between atoms: _313  and  _315
REMARK  126  A    between atoms: _315  and  _316
REMARK  127  A    between atoms: _315  and  _318
REMARK  128  A    between atoms: _318  and  _319
REMARK  129  A    between atoms: _322  and  _324
REMARK  130  A    between atoms: _324  and  _325
REMARK  131  A    between atoms: _324  and  _327
REMARK  132  A    between atoms: _327  and  _328
REMARK  133  A    between atoms: _331  and  _333
REMARK  134  A    between atoms: _333  and  _334
REMARK  135  A    between atoms: _336  and  _338
REMARK  136  A    between atoms: _338  and  _339
REMARK  137  A    between atoms: _342  and  _344
REMARK  138  A    between atoms: _344  and  _345
REMARK  139  A    between atoms: _344  and  _347
REMARK  140  A    between atoms: _347  and  _348
REMARK  141  A    between atoms: _351  and  _353
REMARK  142  A    between atoms: _353  and  _354
REMARK  143  A    between atoms: _353  and  _356
REMARK  144  A    between atoms: _356  and  _357
REMARK  145  A    between atoms: _360  and  _362
REMARK  146  A    between atoms: _362  and  _363
REMARK  147  A    between atoms: _362  and  _365
REMARK  148  A    between atoms: _365  and  _366
REMARK  149  A    between atoms: _369  and  _371
REMARK  150  A    between atoms: _371  and  _372
REMARK  151  A    between atoms: _371  and  _374
REMARK  152  A    between atoms: _377  and  _379
REMARK  153  A    between atoms: _379  and  _380
REMARK  154  A    between atoms: _379  and  _382
REMARK  155  A    between atoms: _383  and  _384
REMARK  156  A    between atoms: _384  and  _385
REMARK  157  A    between atoms: _385  and  _386
REMARK  158  A    between atoms: _390  and  _392
REMARK  159  A    between atoms: _392  and  _393
REMARK  160  A    between atoms: _392  and  _395
REMARK  161  A    between atoms: _395  and  _396
REMARK  162  A    between atoms: _396  and  _397
REMARK  163  A    between atoms: _399  and  _401
REMARK  164  A    between atoms: _401  and  _402
REMARK  165  A    between atoms: _401  and  _404
REMARK  166  A    between atoms: _404  and  _405
REMARK  167  A    between atoms: _408  and  _410
REMARK  168  A    between atoms: _410  and  _411
REMARK  169  A    between atoms: _413  and  _415
REMARK  170  A    between atoms: _415  and  _416
REMARK  171  A    between atoms: _418  and  _420
REMARK  172  A    between atoms: _420  and  _421
REMARK  173  A    between atoms: _420  and  _423
REMARK  174  A    between atoms: _423  and  _424
REMARK  175  A    between atoms: _427  and  _429
REMARK  176  A    between atoms: _429  and  _430
REMARK  177  A    between atoms: _432  and  _434
REMARK  178  A    between atoms: _434  and  _435
REMARK  179  A    between atoms: _437  and  _439
REMARK  180  A    between atoms: _439  and  _440
REMARK  181  A    between atoms: _439  and  _442
REMARK  182  A    between atoms: _442  and  _443
REMARK  183  A    between atoms: _449  and  _451
REMARK  184  A    between atoms: _451  and  _452
REMARK  185  A    between atoms: _451  and  _454
REMARK  186  A    between atoms: _454  and  _455
REMARK  187  A    between atoms: _458  and  _460
REMARK  188  A    between atoms: _460  and  _461
REMARK  189  A    between atoms: _460  and  _463
REMARK  190  A    between atoms: _466  and  _468
REMARK  191  A    between atoms: _468  and  _469
REMARK  192  A    between atoms: _468  and  _471
REMARK  193  A    between atoms: _471  and  _472
REMARK  194  A    between atoms: _475  and  _477
REMARK  195  A    between atoms: _477  and  _478
REMARK  196  A    between atoms: _477  and  _480
REMARK  197  A    between atoms: _480  and  _481
REMARK  198  A    between atoms: _485  and  _486
REMARK  199  A    between atoms: _491  and  _493
REMARK  200  A    between atoms: _493  and  _494
REMARK  201  A    between atoms: _493  and  _496
REMARK  202  A    between atoms: _499  and  _501
REMARK  203  A    between atoms: _501  and  _502
REMARK  204  A    between atoms: _501  and  _504
REMARK  205  A    between atoms: _504  and  _505
REMARK  206  A    between atoms: _510  and  _512
REMARK  207  A    between atoms: _512  and  _513
REMARK  208  A    between atoms: _512  and  _515
REMARK  209  A    between atoms: _515  and  _516
REMARK  210  A    between atoms: _519  and  _521
REMARK  211  A    between atoms: _521  and  _522
REMARK  212  A    between atoms: _521  and  _524
REMARK  213  A    between atoms: _524  and  _525
REMARK  214  A    between atoms: _528  and  _530
REMARK  215  A    between atoms: _530  and  _531
REMARK  216  A    between atoms: _533  and  _535
REMARK  217  A    between atoms: _535  and  _536
REMARK  218  A    between atoms: _535  and  _538
REMARK  219  A    between atoms: _538  and  _539
REMARK  220  A    between atoms: _539  and  _540
REMARK  221  A    between atoms: _540  and  _541
REMARK  222  A    between atoms: _550  and  _552
REMARK  223  A    between atoms: _552  and  _553
REMARK  224  A    between atoms: _552  and  _555
REMARK  225  A    between atoms: _555  and  _556
REMARK                            x       y       z     vdW  Elec       q    Type
REMARK                         _______ _______ _______ _____ _____    ______ ____
ROOT
ATOM      1  O   HOH     1      24.885  19.107   0.305  0.00  0.00    +0.000 OA
ENDROOT
TORSDOF 0
REMARK  Name = ../refined-set-2016/1izh/1izh_pocket.pdb
REMARK  225 active torsions:
REMARK  status: ('A' for Active; 'I' for Inactive)
REMARK    1  A    between atoms: _1  and  _3
REMARK    2  A    between atoms: _3  and  _4
REMARK    3  A    between atoms: _3  and  _6
REMARK    4  A    between atoms: _6  and  _7
REMARK    5  A    between atoms: _7  and  _8
REMARK    6  A    between atoms: _8  and  _9
REMARK    7  A    between atoms: _18  and  _20
REMARK    8  A    between atoms: _20  and  _21
REMARK    9  A    between atoms: _20  and  _23
REMARK   10  A    between atoms: _23  and  _24
REMARK   11  A    between atoms: _27  and  _29
REMARK   12  A    between atoms: _29  and  _30
REMARK   13  A    between atoms: _29  and  _32
REMARK   14  A    between atoms: _32  and  _33
REMARK   15  A    between atoms: _36  and  _38
REMARK   16  A    between atoms: _38  and  _39
REMARK   17  A    between atoms: _38  and  _41
REMARK   18  A    between atoms: _41  and  _42
REMARK   19  A    between atoms: _45  and  _47
REMARK   20  A    between atoms: _47  and  _48
REMARK   21  A    between atoms: _47  and  _50
REMARK   22  A    between atoms: _50  and  _51
REMARK   23  A    between atoms: _54  and  _56
REMARK   24  A    between atoms: _56  and  _57
REMARK   25  A    between atoms: _59  and  _61
REMARK   26  A    between atoms: _61  and  _62
REMARK   27  A    between atoms: _65  and  _67
REMARK   28  A    between atoms: _67  and  _68
REMARK   29  A    between atoms: _67  and  _70
REMARK   30  A    between atoms: _70  and  _71
REMARK   31  A    between atoms: _74  and  _76
REMARK   32  A    between atoms: _76  and  _77
REMARK   33  A    between atoms: _76  and  _79
REMARK   34  A    between atoms: _79  and  _80
REMARK   35  A    between atoms: _83  and  _85
REMARK   36  A    between atoms: _85  and  _86
REMARK   37  A    between atoms: _85  and  _88
REMARK   38  A    between atoms: _88  and  _89
REMARK   39  A    between atoms: _92  and  _94
REMARK   40  A    between atoms: _94  and  _95
REMARK   41  A    between atoms: _94  and  _97
REMARK   42  A    between atoms: _100  and  _102
REMARK   43  A    between atoms: _102  and  _103
REMARK   44  A    between atoms: _102  and  _105
REMARK   45  A    between atoms: _105  and  _106
REMARK   46  A    between atoms: _106  and  _107
REMARK   47  A    between atoms: _109  and  _111
REMARK   48  A    between atoms: _111  and  _112
REMARK   49  A    between atoms: _111  and  _114
REMARK   50  A    between atoms: _114  and  _115
REMARK   51  A    between atoms: _118  and  _120
REMARK   52  A    between atoms: _120  and  _121
REMARK   53  A    between atoms: _123  and  _125
REMARK   54  A    between atoms: _125  and  _126
REMARK   55  A    between atoms: _128  and  _130
REMARK   56  A    between atoms: _130  and  _131
REMARK   57  A    between atoms: _130  and  _133
REMARK   58  A    between atoms: _133  and  _134
REMARK   59  A    between atoms: _137  and  _139
REMARK   60  A    between atoms: _139  and  _140
REMARK   61  A    between atoms: _142  and  _144
REMARK   62  A    between atoms: _144  and  _145
REMARK   63  A    between atoms: _147  and  _149
REMARK   64  A    between atoms: _149  and  _150
REMARK   65  A    between atoms: _149  and  _152
REMARK   66  A    between atoms: _152  and  _153
REMARK   67  A    between atoms: _159  and  _161
REMARK   68  A    between atoms: _161  and  _162
REMARK   69  A    between atoms: _161  and  _164
REMARK   70  A    between atoms: _164  and  _165
REMARK   71  A    between atoms: _168  and  _170
REMARK   72  A    between atoms: _170  and  _171
REMARK   73  A    between atoms: _170  and  _173
REMARK   74  A    between atoms: _176  and  _178
REMARK   75  A    between atoms: _178  and  _179
REMARK   76  A    between atoms: _178  and  _181
REMARK   77  A    between atoms: _181  and  _182
REMARK   78  A    between atoms: _186  and  _187
REMARK   79  A    between atoms: _192  and  _194
REMARK   80  A    between atoms: _194  and  _195
REMARK   81  A    between atoms: _194  and  _197
REMARK   82  A    between atoms: _197  and  _198
REMARK   83  A    between atoms: _202  and  _203
REMARK   84  A    between atoms: _208  and  _210
REMARK   85  A    between atoms: _210  and  _211
REMARK   86  A    between atoms: _210  and  _213
REMARK   87  A    between atoms: _216  and  _218
REMARK   88  A    between atoms: _218  and  _219
REMARK   89  A    between atoms: _218  and  _221
REMARK   90  A    between atoms: _221  and  _222
REMARK   91  A    between atoms: _227  and  _229
REMARK   92  A    between atoms: _229  and  _230
REMARK   93  A    between atoms: _229  and  _232
REMARK   94  A    between atoms: _232  and  _233
REMARK   95  A    between atoms: _236  and  _238
REMARK   96  A    between atoms: _238  and  _239
REMARK   97  A    between atoms: _238  and  _241
REMARK   98  A    between atoms: _241  and  _242
REMARK   99  A    between atoms: _245  and  _247
REMARK  100  A    between atoms: _247  and  _248
REMARK  101  A    between atoms: _250  and  _252
REMARK  102  A    between atoms: _252  and  _253
REMARK  103  A    between atoms: _252  and  _255
REMARK  104  A    between atoms: _255  and  _256
REMARK  105  A    between atoms: _256  and  _257
REMARK  106  A    between atoms: _257  and  _258
REMARK  107  A    between atoms: _267  and  _269
REMARK  108  A    between atoms: _269  and  _270
REMARK  109  A    between atoms: _269  and  _272
REMARK  110  A    between atoms: _272  and  _273
REMARK  111  A    between atoms: _278  and  _280
REMARK  112  A    between atoms: _280  and  _281
REMARK  113  A    between atoms: _280  and  _283
REMARK  114  A    between atoms: _283  and  _284
REMARK  115  A    between atoms: _284  and  _285
REMARK  116  A    between atoms: _285  and  _286
REMARK  117  A    between atoms: _295  and  _297
REMARK  118  A    between atoms: _297  and  _298
REMARK  119  A    between atoms: _297  and  _300
REMARK  120  A    between atoms: _300  and  _301
REMARK  121  A    between atoms: _304  and  _306
REMARK  122  A    between atoms: _306  and  _307
REMARK  123  A    between atoms: _306  and  _309
REMARK  124  A    between atoms: _309  and  _310
REMARK  125  A    between atoms: _313  and  _315
REMARK  126  A    between atoms: _315  and  _316
REMARK  127  A    between atoms: _315  and  _318
REMARK  128  A    between atoms: _318  and  _319
REMARK  129  A    between atoms: _322  and  _324
REMARK  130  A    between atoms: _324  and  _325
REMARK  131  A    between atoms: _324  and  _327
REMARK  132  A    between atoms: _327  and  _328
REMARK  133  A    between atoms: _331  and  _333
REMARK  134  A    between atoms: _333  and  _334
REMARK  135  A    between atoms: _336  and  _338
REMARK  136  A    between atoms: _338  and  _339
REMARK  137  A    between atoms: _342  and  _344
REMARK  138  A    between atoms: _344  and  _345
REMARK  139  A    between atoms: _344  and  _347
REMARK  140  A    between atoms: _347  and  _348
REMARK  141  A    between atoms: _351  and  _353
REMARK  142  A    between atoms: _353  and  _354
REMARK  143  A    between atoms: _353  and  _356
REMARK  144  A    between atoms: _356  and  _357
REMARK  145  A    between atoms: _360  and  _362
REMARK  146  A    between atoms: _362  and  _363
REMARK  147  A    between atoms: _362  and  _365
REMARK  148  A    between atoms: _365  and  _366
REMARK  149  A    between atoms: _369  and  _371
REMARK  150  A    between atoms: _371  and  _372
REMARK  151  A    between atoms: _371  and  _374
REMARK  152  A    between atoms: _377  and  _379
REMARK  153  A    between atoms: _379  and  _380
REMARK  154  A    between atoms: _379  and  _382
REMARK  155  A    between atoms: _383  and  _384
REMARK  156  A    between atoms: _384  and  _385
REMARK  157  A    between atoms: _385  and  _386
REMARK  158  A    between atoms: _390  and  _392
REMARK  159  A    between atoms: _392  and  _393
REMARK  160  A    between atoms: _392  and  _395
REMARK  161  A    between atoms: _395  and  _396
REMARK  162  A    between atoms: _396  and  _397
REMARK  163  A    between atoms: _399  and  _401
REMARK  164  A    between atoms: _401  and  _402
REMARK  165  A    between atoms: _401  and  _404
REMARK  166  A    between atoms: _404  and  _405
REMARK  167  A    between atoms: _408  and  _410
REMARK  168  A    between atoms: _410  and  _411
REMARK  169  A    between atoms: _413  and  _415
REMARK  170  A    between atoms: _415  and  _416
REMARK  171  A    between atoms: _418  and  _420
REMARK  172  A    between atoms: _420  and  _421
REMARK  173  A    between atoms: _420  and  _423
REMARK  174  A    between atoms: _423  and  _424
REMARK  175  A    between atoms: _427  and  _429
REMARK  176  A    between atoms: _429  and  _430
REMARK  177  A    between atoms: _432  and  _434
REMARK  178  A    between atoms: _434  and  _435
REMARK  179  A    between atoms: _437  and  _439
REMARK  180  A    between atoms: _439  and  _440
REMARK  181  A    between atoms: _439  and  _442
REMARK  182  A    between atoms: _442  and  _443
REMARK  183  A    between atoms: _449  and  _451
REMARK  184  A    between atoms: _451  and  _452
REMARK  185  A    between atoms: _451  and  _454
REMARK  186  A    between atoms: _454  and  _455
REMARK  187  A    between atoms: _458  and  _460
REMARK  188  A    between atoms: _460  and  _461
REMARK  189  A    between atoms: _460  and  _463
REMARK  190  A    between atoms: _466  and  _468
REMARK  191  A    between atoms: _468  and  _469
REMARK  192  A    between atoms: _468  and  _471
REMARK  193  A    between atoms: _471  and  _472
REMARK  194  A    between atoms: _475  and  _477
REMARK  195  A    between atoms: _477  and  _478
REMARK  196  A    between atoms: _477  and  _480
REMARK  197  A    between atoms: _480  and  _481
REMARK  198  A    between atoms: _485  and  _486
REMARK  199  A    between atoms: _491  and  _493
REMARK  200  A    between atoms: _493  and  _494
REMARK  201  A    between atoms: _493  and  _496
REMARK  202  A    between atoms: _499  and  _501
REMARK  203  A    between atoms: _501  and  _502
REMARK  204  A    between atoms: _501  and  _504
REMARK  205  A    between atoms: _504  and  _505
REMARK  206  A    between atoms: _510  and  _512
REMARK  207  A    between atoms: _512  and  _513
REMARK  208  A    between atoms: _512  and  _515
REMARK  209  A    between atoms: _515  and  _516
REMARK  210  A    between atoms: _519  and  _521
REMARK  211  A    between atoms: _521  and  _522
REMARK  212  A    between atoms: _521  and  _524
REMARK  213  A    between atoms: _524  and  _525
REMARK  214  A    between atoms: _528  and  _530
REMARK  215  A    between atoms: _530  and  _531
REMARK  216  A    between atoms: _533  and  _535
REMARK  217  A    between atoms: _535  and  _536
REMARK  218  A    between atoms: _535  and  _538
REMARK  219  A    between atoms: _538  and  _539
REMARK  220  A    between atoms: _539  and  _540
REMARK  221  A    between atoms: _540  and  _541
REMARK  222  A    between atoms: _550  and  _552
REMARK  223  A    between atoms: _552  and  _553
REMARK  224  A    between atoms: _552  and  _555
REMARK  225  A    between atoms: _555  and  _556
REMARK                            x       y       z     vdW  Elec       q    Type
REMARK                         _______ _______ _______ _____ _____    ______ ____
ROOT
ATOM      1  O   HOH     1      13.517  15.659  10.959  0.00  0.00    +0.000 OA
ENDROOT
TORSDOF 0
REMARK  Name = ../refined-set-2016/1izh/1izh_pocket.pdb
REMARK  225 active torsions:
REMARK  status: ('A' for Active; 'I' for Inactive)
REMARK    1  A    between atoms: _1  and  _3
REMARK    2  A    between atoms: _3  and  _4
REMARK    3  A    between atoms: _3  and  _6
REMARK    4  A    between atoms: _6  and  _7
REMARK    5  A    between atoms: _7  and  _8
REMARK    6  A    between atoms: _8  and  _9
REMARK    7  A    between atoms: _18  and  _20
REMARK    8  A    between atoms: _20  and  _21
REMARK    9  A    between atoms: _20  and  _23
REMARK   10  A    between atoms: _23  and  _24
REMARK   11  A    between atoms: _27  and  _29
REMARK   12  A    between atoms: _29  and  _30
REMARK   13  A    between atoms: _29  and  _32
REMARK   14  A    between atoms: _32  and  _33
REMARK   15  A    between atoms: _36  and  _38
REMARK   16  A    between atoms: _38  and  _39
REMARK   17  A    between atoms: _38  and  _41
REMARK   18  A    between atoms: _41  and  _42
REMARK   19  A    between atoms: _45  and  _47
REMARK   20  A    between atoms: _47  and  _48
REMARK   21  A    between atoms: _47  and  _50
REMARK   22  A    between atoms: _50  and  _51
REMARK   23  A    between atoms: _54  and  _56
REMARK   24  A    between atoms: _56  and  _57
REMARK   25  A    between atoms: _59  and  _61
REMARK   26  A    between atoms: _61  and  _62
REMARK   27  A    between atoms: _65  and  _67
REMARK   28  A    between atoms: _67  and  _68
REMARK   29  A    between atoms: _67  and  _70
REMARK   30  A    between atoms: _70  and  _71
REMARK   31  A    between atoms: _74  and  _76
REMARK   32  A    between atoms: _76  and  _77
REMARK   33  A    between atoms: _76  and  _79
REMARK   34  A    between atoms: _79  and  _80
REMARK   35  A    between atoms: _83  and  _85
REMARK   36  A    between atoms: _85  and  _86
REMARK   37  A    between atoms: _85  and  _88
REMARK   38  A    between atoms: _88  and  _89
REMARK   39  A    between atoms: _92  and  _94
REMARK   40  A    between atoms: _94  and  _95
REMARK   41  A    between atoms: _94  and  _97
REMARK   42  A    between atoms: _100  and  _102
REMARK   43  A    between atoms: _102  and  _103
REMARK   44  A    between atoms: _102  and  _105
REMARK   45  A    between atoms: _105  and  _106
REMARK   46  A    between atoms: _106  and  _107
REMARK   47  A    between atoms: _109  and  _111
REMARK   48  A    between atoms: _111  and  _112
REMARK   49  A    between atoms: _111  and  _114
REMARK   50  A    between atoms: _114  and  _115
REMARK   51  A    between atoms: _118  and  _120
REMARK   52  A    between atoms: _120  and  _121
REMARK   53  A    between atoms: _123  and  _125
REMARK   54  A    between atoms: _125  and  _126
REMARK   55  A    between atoms: _128  and  _130
REMARK   56  A    between atoms: _130  and  _131
REMARK   57  A    between atoms: _130  and  _133
REMARK   58  A    between atoms: _133  and  _134
REMARK   59  A    between atoms: _137  and  _139
REMARK   60  A    between atoms: _139  and  _140
REMARK   61  A    between atoms: _142  and  _144
REMARK   62  A    between atoms: _144  and  _145
REMARK   63  A    between atoms: _147  and  _149
REMARK   64  A    between atoms: _149  and  _150
REMARK   65  A    between atoms: _149  and  _152
REMARK   66  A    between atoms: _152  and  _153
REMARK   67  A    between atoms: _159  and  _161
REMARK   68  A    between atoms: _161  and  _162
REMARK   69  A    between atoms: _161  and  _164
REMARK   70  A    between atoms: _164  and  _165
REMARK   71  A    between atoms: _168  and  _170
REMARK   72  A    between atoms: _170  and  _171
REMARK   73  A    between atoms: _170  and  _173
REMARK   74  A    between atoms: _176  and  _178
REMARK   75  A    between atoms: _178  and  _179
REMARK   76  A    between atoms: _178  and  _181
REMARK   77  A    between atoms: _181  and  _182
REMARK   78  A    between atoms: _186  and  _187
REMARK   79  A    between atoms: _192  and  _194
REMARK   80  A    between atoms: _194  and  _195
REMARK   81  A    between atoms: _194  and  _197
REMARK   82  A    between atoms: _197  and  _198
REMARK   83  A    between atoms: _202  and  _203
REMARK   84  A    between atoms: _208  and  _210
REMARK   85  A    between atoms: _210  and  _211
REMARK   86  A    between atoms: _210  and  _213
REMARK   87  A    between atoms: _216  and  _218
REMARK   88  A    between atoms: _218  and  _219
REMARK   89  A    between atoms: _218  and  _221
REMARK   90  A    between atoms: _221  and  _222
REMARK   91  A    between atoms: _227  and  _229
REMARK   92  A    between atoms: _229  and  _230
REMARK   93  A    between atoms: _229  and  _232
REMARK   94  A    between atoms: _232  and  _233
REMARK   95  A    between atoms: _236  and  _238
REMARK   96  A    between atoms: _238  and  _239
REMARK   97  A    between atoms: _238  and  _241
REMARK   98  A    between atoms: _241  and  _242
REMARK   99  A    between atoms: _245  and  _247
REMARK  100  A    between atoms: _247  and  _248
REMARK  101  A    between atoms: _250  and  _252
REMARK  102  A    between atoms: _252  and  _253
REMARK  103  A    between atoms: _252  and  _255
REMARK  104  A    between atoms: _255  and  _256
REMARK  105  A    between atoms: _256  and  _257
REMARK  106  A    between atoms: _257  and  _258
REMARK  107  A    between atoms: _267  and  _269
REMARK  108  A    between atoms: _269  and  _270
REMARK  109  A    between atoms: _269  and  _272
REMARK  110  A    between atoms: _272  and  _273
REMARK  111  A    between atoms: _278  and  _280
REMARK  112  A    between atoms: _280  and  _281
REMARK  113  A    between atoms: _280  and  _283
REMARK  114  A    between atoms: _283  and  _284
REMARK  115  A    between atoms: _284  and  _285
REMARK  116  A    between atoms: _285  and  _286
REMARK  117  A    between atoms: _295  and  _297
REMARK  118  A    between atoms: _297  and  _298
REMARK  119  A    between atoms: _297  and  _300
REMARK  120  A    between atoms: _300  and  _301
REMARK  121  A    between atoms: _304  and  _306
REMARK  122  A    between atoms: _306  and  _307
REMARK  123  A    between atoms: _306  and  _309
REMARK  124  A    between atoms: _309  and  _310
REMARK  125  A    between atoms: _313  and  _315
REMARK  126  A    between atoms: _315  and  _316
REMARK  127  A    between atoms: _315  and  _318
REMARK  128  A    between atoms: _318  and  _319
REMARK  129  A    between atoms: _322  and  _324
REMARK  130  A    between atoms: _324  and  _325
REMARK  131  A    between atoms: _324  and  _327
REMARK  132  A    between atoms: _327  and  _328
REMARK  133  A    between atoms: _331  and  _333
REMARK  134  A    between atoms: _333  and  _334
REMARK  135  A    between atoms: _336  and  _338
REMARK  136  A    between atoms: _338  and  _339
REMARK  137  A    between atoms: _342  and  _344
REMARK  138  A    between atoms: _344  and  _345
REMARK  139  A    between atoms: _344  and  _347
REMARK  140  A    between atoms: _347  and  _348
REMARK  141  A    between atoms: _351  and  _353
REMARK  142  A    between atoms: _353  and  _354
REMARK  143  A    between atoms: _353  and  _356
REMARK  144  A    between atoms: _356  and  _357
REMARK  145  A    between atoms: _360  and  _362
REMARK  146  A    between atoms: _362  and  _363
REMARK  147  A    between atoms: _362  and  _365
REMARK  148  A    between atoms: _365  and  _366
REMARK  149  A    between atoms: _369  and  _371
REMARK  150  A    between atoms: _371  and  _372
REMARK  151  A    between atoms: _371  and  _374
REMARK  152  A    between atoms: _377  and  _379
REMARK  153  A    between atoms: _379  and  _380
REMARK  154  A    between atoms: _379  and  _382
REMARK  155  A    between atoms: _383  and  _384
REMARK  156  A    between atoms: _384  and  _385
REMARK  157  A    between atoms: _385  and  _386
REMARK  158  A    between atoms: _390  and  _392
REMARK  159  A    between atoms: _392  and  _393
REMARK  160  A    between atoms: _392  and  _395
REMARK  161  A    between atoms: _395  and  _396
REMARK  162  A    between atoms: _396  and  _397
REMARK  163  A    between atoms: _399  and  _401
REMARK  164  A    between atoms: _401  and  _402
REMARK  165  A    between atoms: _401  and  _404
REMARK  166  A    between atoms: _404  and  _405
REMARK  167  A    between atoms: _408  and  _410
REMARK  168  A    between atoms: _410  and  _411
REMARK  169  A    between atoms: _413  and  _415
REMARK  170  A    between atoms: _415  and  _416
REMARK  171  A    between atoms: _418  and  _420
REMARK  172  A    between atoms: _420  and  _421
REMARK  173  A    between atoms: _420  and  _423
REMARK  174  A    between atoms: _423  and  _424
REMARK  175  A    between atoms: _427  and  _429
REMARK  176  A    between atoms: _429  and  _430
REMARK  177  A    between atoms: _432  and  _434
REMARK  178  A    between atoms: _434  and  _435
REMARK  179  A    between atoms: _437  and  _439
REMARK  180  A    between atoms: _439  and  _440
REMARK  181  A    between atoms: _439  and  _442
REMARK  182  A    between atoms: _442  and  _443
REMARK  183  A    between atoms: _449  and  _451
REMARK  184  A    between atoms: _451  and  _452
REMARK  185  A    between atoms: _451  and  _454
REMARK  186  A    between atoms: _454  and  _455
REMARK  187  A    between atoms: _458  and  _460
REMARK  188  A    between atoms: _460  and  _461
REMARK  189  A    between atoms: _460  and  _463
REMARK  190  A    between atoms: _466  and  _468
REMARK  191  A    between atoms: _468  and  _469
REMARK  192  A    between atoms: _468  and  _471
REMARK  193  A    between atoms: _471  and  _472
REMARK  194  A    between atoms: _475  and  _477
REMARK  195  A    between atoms: _477  and  _478
REMARK  196  A    between atoms: _477  and  _480
REMARK  197  A    between atoms: _480  and  _481
REMARK  198  A    between atoms: _485  and  _486
REMARK  199  A    between atoms: _491  and  _493
REMARK  200  A    between atoms: _493  and  _494
REMARK  201  A    between atoms: _493  and  _496
REMARK  202  A    between atoms: _499  and  _501
REMARK  203  A    between atoms: _501  and  _502
REMARK  204  A    between atoms: _501  and  _504
REMARK  205  A    between atoms: _504  and  _505
REMARK  206  A    between atoms: _510  and  _512
REMARK  207  A    between atoms: _512  and  _513
REMARK  208  A    between atoms: _512  and  _515
REMARK  209  A    between atoms: _515  and  _516
REMARK  210  A    between atoms: _519  and  _521
REMARK  211  A    between atoms: _521  and  _522
REMARK  212  A    between atoms: _521  and  _524
REMARK  213  A    between atoms: _524  and  _525
REMARK  214  A    between atoms: _528  and  _530
REMARK  215  A    between atoms: _530  and  _531
REMARK  216  A    between atoms: _533  and  _535
REMARK  217  A    between atoms: _535  and  _536
REMARK  218  A    between atoms: _535  and  _538
REMARK  219  A    between atoms: _538  and  _539
REMARK  220  A    between atoms: _539  and  _540
REMARK  221  A    between atoms: _540  and  _541
REMARK  222  A    between atoms: _550  and  _552
REMARK  223  A    between atoms: _552  and  _553
REMARK  224  A    between atoms: _552  and  _555
REMARK  225  A    between atoms: _555  and  _556
REMARK                            x       y       z     vdW  Elec       q    Type
REMARK                         _______ _______ _______ _____ _____    ______ ____
ROOT
ATOM      1  O   HOH     1       2.397  22.912  -0.962  0.00  0.00    +0.000 OA
ENDROOT
TORSDOF 0
