REMARK  Name = ../refined-set-2016/4fz3/4fz3_pocket.pdb
REMARK  126 active torsions:
REMARK  status: ('A' for Active; 'I' for Inactive)
REMARK    1  A    between atoms: _1  and  _3
REMARK    2  A    between atoms: _3  and  _4
REMARK    3  A    between atoms: _3  and  _6
REMARK    4  A    between atoms: _6  and  _7
REMARK    5  A    between atoms: _12  and  _13
REMARK    6  A    between atoms: _15  and  _17
REMARK    7  A    between atoms: _17  and  _18
REMARK    8  A    between atoms: _17  and  _20
REMARK    9  A    between atoms: _20  and  _21
REMARK   10  A    between atoms: _21  and  _22
REMARK   11  A    between atoms: _25  and  _27
REMARK   12  A    between atoms: _27  and  _28
REMARK   13  A    between atoms: _27  and  _30
REMARK   14  A    between atoms: _30  and  _31
REMARK   15  A    between atoms: _34  and  _36
REMARK   16  A    between atoms: _36  and  _37
REMARK   17  A    between atoms: _36  and  _39
REMARK   18  A    between atoms: _39  and  _40
REMARK   19  A    between atoms: _46  and  _48
REMARK   20  A    between atoms: _48  and  _49
REMARK   21  A    between atoms: _48  and  _51
REMARK   22  A    between atoms: _51  and  _52
REMARK   23  A    between atoms: _52  and  _53
REMARK   24  A    between atoms: _56  and  _58
REMARK   25  A    between atoms: _58  and  _59
REMARK   26  A    between atoms: _58  and  _61
REMARK   27  A    between atoms: _61  and  _62
REMARK   28  A    between atoms: _68  and  _70
REMARK   29  A    between atoms: _70  and  _71
REMARK   30  A    between atoms: _70  and  _73
REMARK   31  A    between atoms: _73  and  _74
REMARK   32  A    between atoms: _77  and  _79
REMARK   33  A    between atoms: _79  and  _80
REMARK   34  A    between atoms: _79  and  _82
REMARK   35  A    between atoms: _82  and  _83
REMARK   36  A    between atoms: _83  and  _84
REMARK   37  A    between atoms: _89  and  _91
REMARK   38  A    between atoms: _91  and  _92
REMARK   39  A    between atoms: _91  and  _94
REMARK   40  A    between atoms: _94  and  _95
REMARK   41  A    between atoms: _100  and  _102
REMARK   42  A    between atoms: _102  and  _103
REMARK   43  A    between atoms: _102  and  _105
REMARK   44  A    between atoms: _105  and  _106
REMARK   45  A    between atoms: _109  and  _111
REMARK   46  A    between atoms: _111  and  _112
REMARK   47  A    between atoms: _115  and  _117
REMARK   48  A    between atoms: _117  and  _118
REMARK   49  A    between atoms: _117  and  _120
REMARK   50  A    between atoms: _120  and  _121
REMARK   51  A    between atoms: _126  and  _128
REMARK   52  A    between atoms: _128  and  _129
REMARK   53  A    between atoms: _131  and  _133
REMARK   54  A    between atoms: _133  and  _134
REMARK   55  A    between atoms: _133  and  _136
REMARK   56  A    between atoms: _136  and  _137
REMARK   57  A    between atoms: _143  and  _145
REMARK   58  A    between atoms: _145  and  _146
REMARK   59  A    between atoms: _145  and  _148
REMARK   60  A    between atoms: _148  and  _149
REMARK   61  A    between atoms: _149  and  _150
REMARK   62  A    between atoms: _150  and  _151
REMARK   63  A    between atoms: _151  and  _152
REMARK   64  A    between atoms: _156  and  _158
REMARK   65  A    between atoms: _158  and  _159
REMARK   66  A    between atoms: _158  and  _161
REMARK   67  A    between atoms: _161  and  _162
REMARK   68  A    between atoms: _165  and  _167
REMARK   69  A    between atoms: _167  and  _168
REMARK   70  A    between atoms: _167  and  _170
REMARK   71  A    between atoms: _173  and  _175
REMARK   72  A    between atoms: _175  and  _176
REMARK   73  A    between atoms: _175  and  _178
REMARK   74  A    between atoms: _178  and  _179
REMARK   75  A    between atoms: _185  and  _187
REMARK   76  A    between atoms: _187  and  _188
REMARK   77  A    between atoms: _187  and  _190
REMARK   78  A    between atoms: _190  and  _191
REMARK   79  A    between atoms: _197  and  _199
REMARK   80  A    between atoms: _199  and  _200
REMARK   81  A    between atoms: _202  and  _204
REMARK   82  A    between atoms: _204  and  _205
REMARK   83  A    between atoms: _204  and  _207
REMARK   84  A    between atoms: _207  and  _208
REMARK   85  A    between atoms: _208  and  _209
REMARK   86  A    between atoms: _213  and  _214
REMARK   87  A    between atoms: _219  and  _221
REMARK   88  A    between atoms: _221  and  _222
REMARK   89  A    between atoms: _221  and  _224
REMARK   90  A    between atoms: _224  and  _225
REMARK   91  A    between atoms: _229  and  _230
REMARK   92  A    between atoms: _235  and  _237
REMARK   93  A    between atoms: _237  and  _238
REMARK   94  A    between atoms: _237  and  _240
REMARK   95  A    between atoms: _240  and  _241
REMARK   96  A    between atoms: _247  and  _249
REMARK   97  A    between atoms: _249  and  _250
REMARK   98  A    between atoms: _249  and  _252
REMARK   99  A    between atoms: _252  and  _253
REMARK  100  A    between atoms: _256  and  _258
REMARK  101  A    between atoms: _258  and  _259
REMARK  102  A    between atoms: _258  and  _261
REMARK  103  A    between atoms: _261  and  _262
REMARK  104  A    between atoms: _267  and  _269
REMARK  105  A    between atoms: _269  and  _270
REMARK  106  A    between atoms: _269  and  _272
REMARK  107  A    between atoms: _275  and  _277
REMARK  108  A    between atoms: _277  and  _278
REMARK  109  A    between atoms: _277  and  _280
REMARK  110  A    between atoms: _283  and  _285
REMARK  111  A    between atoms: _285  and  _286
REMARK  112  A    between atoms: _285  and  _288
REMARK  113  A    between atoms: _289  and  _290
REMARK  114  A    between atoms: _294  and  _295
REMARK  115  A    between atoms: _300  and  _302
REMARK  116  A    between atoms: _302  and  _303
REMARK  117  A    between atoms: _302  and  _305
REMARK  118  A    between atoms: _305  and  _306
REMARK  119  A    between atoms: _312  and  _314
REMARK  120  A    between atoms: _314  and  _315
REMARK  121  A    between atoms: _314  and  _317
REMARK  122  A    between atoms: _317  and  _318
REMARK  123  A    between atoms: _320  and  _322
REMARK  124  A    between atoms: _322  and  _323
REMARK  125  A    between atoms: _322  and  _325
REMARK  126  A    between atoms: _325  and  _326
REMARK                            x       y       z     vdW  Elec       q    Type
REMARK                         _______ _______ _______ _____ _____    ______ ____
ROOT
ATOM      1  CG  TYR A   1      26.867 -34.389 -11.796  0.00  0.00    -0.020 A 
ATOM      2  CD2 TYR A   1      26.856 -34.431 -10.368  0.00  0.00    -0.001 A 
ATOM      3  CE2 TYR A   1      26.871 -35.624  -9.709  0.00  0.00    +0.036 A 
ATOM      4  CZ  TYR A   1      26.971 -36.808 -10.412  0.00  0.00    +0.134 A 
ATOM      5  CE1 TYR A   1      26.987 -36.781 -11.808  0.00  0.00    +0.036 A 
ATOM      6  CD1 TYR A   1      26.948 -35.558 -12.471  0.00  0.00    -0.001 A 
ENDROOT
BRANCH   4   7
ATOM      7  OH  TYR A   1      27.013 -38.042  -9.766  0.00  0.00    -0.506 OA
ATOM      8  HH  TYR A   1      26.995 -37.901  -8.786  0.00  0.00    +0.292 HD
ENDBRANCH   4   7
BRANCH   1   9
ATOM      9  CB  TYR A   1      26.887 -33.090 -12.534  0.00  0.00    +0.051 C 
BRANCH   9  10
ATOM     10  CA  TYR A   1      28.365 -32.596 -12.787  0.00  0.00    +0.137 C 
BRANCH  10  11
ATOM     11  N   TYR A   1      29.273 -33.718 -13.204  0.00  0.00    -0.239 NA
ATOM     12  H   TYR A   1      29.885 -34.156 -12.486  0.00  0.00    +0.142 HD
ENDBRANCH  10  11
BRANCH  10  13
ATOM     13  C   TYR A   1      29.004 -32.032 -11.504  0.00  0.00    +0.224 C 
ATOM     14  O   TYR A   1      29.832 -32.713 -10.880  0.00  0.00    -0.287 OA
ENDBRANCH  10  13
ENDBRANCH   9  10
ENDBRANCH   1   9
TORSDOF 5
REMARK  Name = ../refined-set-2016/4fz3/4fz3_pocket.pdb
REMARK  126 active torsions:
REMARK  status: ('A' for Active; 'I' for Inactive)
REMARK    1  A    between atoms: _1  and  _3
REMARK    2  A    between atoms: _3  and  _4
REMARK    3  A    between atoms: _3  and  _6
REMARK    4  A    between atoms: _6  and  _7
REMARK    5  A    between atoms: _12  and  _13
REMARK    6  A    between atoms: _15  and  _17
REMARK    7  A    between atoms: _17  and  _18
REMARK    8  A    between atoms: _17  and  _20
REMARK    9  A    between atoms: _20  and  _21
REMARK   10  A    between atoms: _21  and  _22
REMARK   11  A    between atoms: _25  and  _27
REMARK   12  A    between atoms: _27  and  _28
REMARK   13  A    between atoms: _27  and  _30
REMARK   14  A    between atoms: _30  and  _31
REMARK   15  A    between atoms: _34  and  _36
REMARK   16  A    between atoms: _36  and  _37
REMARK   17  A    between atoms: _36  and  _39
REMARK   18  A    between atoms: _39  and  _40
REMARK   19  A    between atoms: _46  and  _48
REMARK   20  A    between atoms: _48  and  _49
REMARK   21  A    between atoms: _48  and  _51
REMARK   22  A    between atoms: _51  and  _52
REMARK   23  A    between atoms: _52  and  _53
REMARK   24  A    between atoms: _56  and  _58
REMARK   25  A    between atoms: _58  and  _59
REMARK   26  A    between atoms: _58  and  _61
REMARK   27  A    between atoms: _61  and  _62
REMARK   28  A    between atoms: _68  and  _70
REMARK   29  A    between atoms: _70  and  _71
REMARK   30  A    between atoms: _70  and  _73
REMARK   31  A    between atoms: _73  and  _74
REMARK   32  A    between atoms: _77  and  _79
REMARK   33  A    between atoms: _79  and  _80
REMARK   34  A    between atoms: _79  and  _82
REMARK   35  A    between atoms: _82  and  _83
REMARK   36  A    between atoms: _83  and  _84
REMARK   37  A    between atoms: _89  and  _91
REMARK   38  A    between atoms: _91  and  _92
REMARK   39  A    between atoms: _91  and  _94
REMARK   40  A    between atoms: _94  and  _95
REMARK   41  A    between atoms: _100  and  _102
REMARK   42  A    between atoms: _102  and  _103
REMARK   43  A    between atoms: _102  and  _105
REMARK   44  A    between atoms: _105  and  _106
REMARK   45  A    between atoms: _109  and  _111
REMARK   46  A    between atoms: _111  and  _112
REMARK   47  A    between atoms: _115  and  _117
REMARK   48  A    between atoms: _117  and  _118
REMARK   49  A    between atoms: _117  and  _120
REMARK   50  A    between atoms: _120  and  _121
REMARK   51  A    between atoms: _126  and  _128
REMARK   52  A    between atoms: _128  and  _129
REMARK   53  A    between atoms: _131  and  _133
REMARK   54  A    between atoms: _133  and  _134
REMARK   55  A    between atoms: _133  and  _136
REMARK   56  A    between atoms: _136  and  _137
REMARK   57  A    between atoms: _143  and  _145
REMARK   58  A    between atoms: _145  and  _146
REMARK   59  A    between atoms: _145  and  _148
REMARK   60  A    between atoms: _148  and  _149
REMARK   61  A    between atoms: _149  and  _150
REMARK   62  A    between atoms: _150  and  _151
REMARK   63  A    between atoms: _151  and  _152
REMARK   64  A    between atoms: _156  and  _158
REMARK   65  A    between atoms: _158  and  _159
REMARK   66  A    between atoms: _158  and  _161
REMARK   67  A    between atoms: _161  and  _162
REMARK   68  A    between atoms: _165  and  _167
REMARK   69  A    between atoms: _167  and  _168
REMARK   70  A    between atoms: _167  and  _170
REMARK   71  A    between atoms: _173  and  _175
REMARK   72  A    between atoms: _175  and  _176
REMARK   73  A    between atoms: _175  and  _178
REMARK   74  A    between atoms: _178  and  _179
REMARK   75  A    between atoms: _185  and  _187
REMARK   76  A    between atoms: _187  and  _188
REMARK   77  A    between atoms: _187  and  _190
REMARK   78  A    between atoms: _190  and  _191
REMARK   79  A    between atoms: _197  and  _199
REMARK   80  A    between atoms: _199  and  _200
REMARK   81  A    between atoms: _202  and  _204
REMARK   82  A    between atoms: _204  and  _205
REMARK   83  A    between atoms: _204  and  _207
REMARK   84  A    between atoms: _207  and  _208
REMARK   85  A    between atoms: _208  and  _209
REMARK   86  A    between atoms: _213  and  _214
REMARK   87  A    between atoms: _219  and  _221
REMARK   88  A    between atoms: _221  and  _222
REMARK   89  A    between atoms: _221  and  _224
REMARK   90  A    between atoms: _224  and  _225
REMARK   91  A    between atoms: _229  and  _230
REMARK   92  A    between atoms: _235  and  _237
REMARK   93  A    between atoms: _237  and  _238
REMARK   94  A    between atoms: _237  and  _240
REMARK   95  A    between atoms: _240  and  _241
REMARK   96  A    between atoms: _247  and  _249
REMARK   97  A    between atoms: _249  and  _250
REMARK   98  A    between atoms: _249  and  _252
REMARK   99  A    between atoms: _252  and  _253
REMARK  100  A    between atoms: _256  and  _258
REMARK  101  A    between atoms: _258  and  _259
REMARK  102  A    between atoms: _258  and  _261
REMARK  103  A    between atoms: _261  and  _262
REMARK  104  A    between atoms: _267  and  _269
REMARK  105  A    between atoms: _269  and  _270
REMARK  106  A    between atoms: _269  and  _272
REMARK  107  A    between atoms: _275  and  _277
REMARK  108  A    between atoms: _277  and  _278
REMARK  109  A    between atoms: _277  and  _280
REMARK  110  A    between atoms: _283  and  _285
REMARK  111  A    between atoms: _285  and  _286
REMARK  112  A    between atoms: _285  and  _288
REMARK  113  A    between atoms: _289  and  _290
REMARK  114  A    between atoms: _294  and  _295
REMARK  115  A    between atoms: _300  and  _302
REMARK  116  A    between atoms: _302  and  _303
REMARK  117  A    between atoms: _302  and  _305
REMARK  118  A    between atoms: _305  and  _306
REMARK  119  A    between atoms: _312  and  _314
REMARK  120  A    between atoms: _314  and  _315
REMARK  121  A    between atoms: _314  and  _317
REMARK  122  A    between atoms: _317  and  _318
REMARK  123  A    between atoms: _320  and  _322
REMARK  124  A    between atoms: _322  and  _323
REMARK  125  A    between atoms: _322  and  _325
REMARK  126  A    between atoms: _325  and  _326
REMARK                            x       y       z     vdW  Elec       q    Type
REMARK                         _______ _______ _______ _____ _____    ______ ____
ROOT
ATOM      1  CA  GLU A   1      28.205 -32.171  -7.137  0.00  0.00    +0.134 C 
ENDROOT
BRANCH   1   2
ATOM      2  N   GLU A   1      28.277 -31.510  -8.408  0.00  0.00    -0.239 NA
ATOM      3  H   GLU A   1      27.464 -31.529  -9.057  0.00  0.00    +0.142 HD
ENDBRANCH   1   2
BRANCH   1   4
ATOM      4  C   GLU A   1      29.008 -33.417  -7.063  0.00  0.00    +0.224 C 
ATOM      5  O   GLU A   1      29.187 -33.907  -5.953  0.00  0.00    -0.287 OA
ENDBRANCH   1   4
BRANCH   1   6
ATOM      6  CB  GLU A   1      26.765 -32.530  -6.750  0.00  0.00    +0.037 C 
BRANCH   6   7
ATOM      7  CG  GLU A   1      25.832 -31.309  -6.624  0.00  0.00    +0.116 C 
BRANCH   7   8
ATOM      8  CD  GLU A   1      25.360 -30.789  -7.970  0.00  0.00    +0.365 C 
ATOM      9  OE2 GLU A   1      24.633 -29.782  -7.936  0.00  0.00    -0.246 OA
ATOM     10  OE1 GLU A   1      25.715 -31.373  -9.051  0.00  0.00    -0.246 OA
ENDBRANCH   7   8
ENDBRANCH   6   7
ENDBRANCH   1   6
TORSDOF 5
REMARK  Name = ../refined-set-2016/4fz3/4fz3_pocket.pdb
REMARK  126 active torsions:
REMARK  status: ('A' for Active; 'I' for Inactive)
REMARK    1  A    between atoms: _1  and  _3
REMARK    2  A    between atoms: _3  and  _4
REMARK    3  A    between atoms: _3  and  _6
REMARK    4  A    between atoms: _6  and  _7
REMARK    5  A    between atoms: _12  and  _13
REMARK    6  A    between atoms: _15  and  _17
REMARK    7  A    between atoms: _17  and  _18
REMARK    8  A    between atoms: _17  and  _20
REMARK    9  A    between atoms: _20  and  _21
REMARK   10  A    between atoms: _21  and  _22
REMARK   11  A    between atoms: _25  and  _27
REMARK   12  A    between atoms: _27  and  _28
REMARK   13  A    between atoms: _27  and  _30
REMARK   14  A    between atoms: _30  and  _31
REMARK   15  A    between atoms: _34  and  _36
REMARK   16  A    between atoms: _36  and  _37
REMARK   17  A    between atoms: _36  and  _39
REMARK   18  A    between atoms: _39  and  _40
REMARK   19  A    between atoms: _46  and  _48
REMARK   20  A    between atoms: _48  and  _49
REMARK   21  A    between atoms: _48  and  _51
REMARK   22  A    between atoms: _51  and  _52
REMARK   23  A    between atoms: _52  and  _53
REMARK   24  A    between atoms: _56  and  _58
REMARK   25  A    between atoms: _58  and  _59
REMARK   26  A    between atoms: _58  and  _61
REMARK   27  A    between atoms: _61  and  _62
REMARK   28  A    between atoms: _68  and  _70
REMARK   29  A    between atoms: _70  and  _71
REMARK   30  A    between atoms: _70  and  _73
REMARK   31  A    between atoms: _73  and  _74
REMARK   32  A    between atoms: _77  and  _79
REMARK   33  A    between atoms: _79  and  _80
REMARK   34  A    between atoms: _79  and  _82
REMARK   35  A    between atoms: _82  and  _83
REMARK   36  A    between atoms: _83  and  _84
REMARK   37  A    between atoms: _89  and  _91
REMARK   38  A    between atoms: _91  and  _92
REMARK   39  A    between atoms: _91  and  _94
REMARK   40  A    between atoms: _94  and  _95
REMARK   41  A    between atoms: _100  and  _102
REMARK   42  A    between atoms: _102  and  _103
REMARK   43  A    between atoms: _102  and  _105
REMARK   44  A    between atoms: _105  and  _106
REMARK   45  A    between atoms: _109  and  _111
REMARK   46  A    between atoms: _111  and  _112
REMARK   47  A    between atoms: _115  and  _117
REMARK   48  A    between atoms: _117  and  _118
REMARK   49  A    between atoms: _117  and  _120
REMARK   50  A    between atoms: _120  and  _121
REMARK   51  A    between atoms: _126  and  _128
REMARK   52  A    between atoms: _128  and  _129
REMARK   53  A    between atoms: _131  and  _133
REMARK   54  A    between atoms: _133  and  _134
REMARK   55  A    between atoms: _133  and  _136
REMARK   56  A    between atoms: _136  and  _137
REMARK   57  A    between atoms: _143  and  _145
REMARK   58  A    between atoms: _145  and  _146
REMARK   59  A    between atoms: _145  and  _148
REMARK   60  A    between atoms: _148  and  _149
REMARK   61  A    between atoms: _149  and  _150
REMARK   62  A    between atoms: _150  and  _151
REMARK   63  A    between atoms: _151  and  _152
REMARK   64  A    between atoms: _156  and  _158
REMARK   65  A    between atoms: _158  and  _159
REMARK   66  A    between atoms: _158  and  _161
REMARK   67  A    between atoms: _161  and  _162
REMARK   68  A    between atoms: _165  and  _167
REMARK   69  A    between atoms: _167  and  _168
REMARK   70  A    between atoms: _167  and  _170
REMARK   71  A    between atoms: _173  and  _175
REMARK   72  A    between atoms: _175  and  _176
REMARK   73  A    between atoms: _175  and  _178
REMARK   74  A    between atoms: _178  and  _179
REMARK   75  A    between atoms: _185  and  _187
REMARK   76  A    between atoms: _187  and  _188
REMARK   77  A    between atoms: _187  and  _190
REMARK   78  A    between atoms: _190  and  _191
REMARK   79  A    between atoms: _197  and  _199
REMARK   80  A    between atoms: _199  and  _200
REMARK   81  A    between atoms: _202  and  _204
REMARK   82  A    between atoms: _204  and  _205
REMARK   83  A    between atoms: _204  and  _207
REMARK   84  A    between atoms: _207  and  _208
REMARK   85  A    between atoms: _208  and  _209
REMARK   86  A    between atoms: _213  and  _214
REMARK   87  A    between atoms: _219  and  _221
REMARK   88  A    between atoms: _221  and  _222
REMARK   89  A    between atoms: _221  and  _224
REMARK   90  A    between atoms: _224  and  _225
REMARK   91  A    between atoms: _229  and  _230
REMARK   92  A    between atoms: _235  and  _237
REMARK   93  A    between atoms: _237  and  _238
REMARK   94  A    between atoms: _237  and  _240
REMARK   95  A    between atoms: _240  and  _241
REMARK   96  A    between atoms: _247  and  _249
REMARK   97  A    between atoms: _249  and  _250
REMARK   98  A    between atoms: _249  and  _252
REMARK   99  A    between atoms: _252  and  _253
REMARK  100  A    between atoms: _256  and  _258
REMARK  101  A    between atoms: _258  and  _259
REMARK  102  A    between atoms: _258  and  _261
REMARK  103  A    between atoms: _261  and  _262
REMARK  104  A    between atoms: _267  and  _269
REMARK  105  A    between atoms: _269  and  _270
REMARK  106  A    between atoms: _269  and  _272
REMARK  107  A    between atoms: _275  and  _277
REMARK  108  A    between atoms: _277  and  _278
REMARK  109  A    between atoms: _277  and  _280
REMARK  110  A    between atoms: _283  and  _285
REMARK  111  A    between atoms: _285  and  _286
REMARK  112  A    between atoms: _285  and  _288
REMARK  113  A    between atoms: _289  and  _290
REMARK  114  A    between atoms: _294  and  _295
REMARK  115  A    between atoms: _300  and  _302
REMARK  116  A    between atoms: _302  and  _303
REMARK  117  A    between atoms: _302  and  _305
REMARK  118  A    between atoms: _305  and  _306
REMARK  119  A    between atoms: _312  and  _314
REMARK  120  A    between atoms: _314  and  _315
REMARK  121  A    between atoms: _314  and  _317
REMARK  122  A    between atoms: _317  and  _318
REMARK  123  A    between atoms: _320  and  _322
REMARK  124  A    between atoms: _322  and  _323
REMARK  125  A    between atoms: _322  and  _325
REMARK  126  A    between atoms: _325  and  _326
REMARK                            x       y       z     vdW  Elec       q    Type
REMARK                         _______ _______ _______ _____ _____    ______ ____
ROOT
ATOM      1  CA  PHE A   2      31.533 -34.324  -2.974  0.00  0.00    +0.153 C 
ENDROOT
BRANCH   1   4
ATOM      2  C   ILE A   1      33.051 -33.911  -4.873  0.00  0.00    +0.238 C 
ATOM      3  O   ILE A   1      34.073 -34.308  -4.258  0.00  0.00    -0.274 OA
ATOM      4  N   PHE A   2      31.807 -33.869  -4.337  0.00  0.00    -0.297 N 
ATOM      5  H   PHE A   2      31.023 -33.502  -4.913  0.00  0.00    +0.150 HD
BRANCH   2   6
ATOM      6  CA  ILE A   1      33.178 -33.540  -6.377  0.00  0.00    +0.145 C 
BRANCH   6   7
ATOM      7  N   ILE A   1      31.893 -33.733  -7.106  0.00  0.00    -0.238 NA
ATOM      8  H   ILE A   1      31.350 -32.927  -7.475  0.00  0.00    +0.142 HD
ENDBRANCH   6   7
BRANCH   6   9
ATOM      9  CB  ILE A   1      33.766 -32.175  -6.583  0.00  0.00    +0.025 C 
ATOM     10  CG2 ILE A   1      32.903 -31.030  -5.841  0.00  0.00    +0.002 C 
BRANCH   9  11
ATOM     11  CG1 ILE A   1      35.316 -32.250  -6.394  0.00  0.00    +0.002 C 
ATOM     12  CD1 ILE A   1      36.010 -31.024  -6.580  0.00  0.00    +0.000 C 
ENDBRANCH   9  11
ENDBRANCH   6   9
ENDBRANCH   2   6
ENDBRANCH   1   4
BRANCH   1  13
ATOM     13  C   PHE A   2      30.643 -35.552  -2.884  0.00  0.00    +0.241 C 
ATOM     14  O   PHE A   2      29.888 -35.740  -1.898  0.00  0.00    -0.273 OA
ATOM     15  N   GLU A   3      30.771 -36.461  -3.875  0.00  0.00    -0.298 N 
ATOM     16  H   GLU A   3      31.336 -36.238  -4.719  0.00  0.00    +0.150 HD
BRANCH  15  17
ATOM     17  CA  GLU A   3      30.102 -37.778  -3.754  0.00  0.00    +0.137 C 
BRANCH  17  18
ATOM     18  C   GLU A   3      31.104 -38.865  -3.596  0.00  0.00    +0.227 C 
ATOM     19  O   GLU A   3      32.102 -38.892  -4.305  0.00  0.00    -0.286 OA
ENDBRANCH  17  18
BRANCH  17  20
ATOM     20  CB  GLU A   3      29.208 -38.052  -4.977  0.00  0.00    +0.039 C 
BRANCH  20  21
ATOM     21  CG  GLU A   3      28.069 -37.076  -5.055  0.00  0.00    +0.116 C 
BRANCH  21  22
ATOM     22  CD  GLU A   3      27.264 -37.219  -6.430  0.00  0.00    +0.365 C 
ATOM     23  OE2 GLU A   3      26.210 -36.577  -6.523  0.00  0.00    -0.246 OA
ATOM     24  OE1 GLU A   3      27.750 -37.919  -7.361  0.00  0.00    -0.246 OA
ENDBRANCH  21  22
ENDBRANCH  20  21
ENDBRANCH  17  20
ENDBRANCH  15  17
ENDBRANCH   1  13
BRANCH   1  25
ATOM     25  CB  PHE A   2      30.997 -33.208  -2.119  0.00  0.00    +0.055 C 
BRANCH  25  26
ATOM     26  CG  PHE A   2      31.727 -31.925  -2.284  0.00  0.00    -0.020 A 
ATOM     27  CD2 PHE A   2      33.075 -31.864  -1.966  0.00  0.00    -0.004 A 
ATOM     28  CE2 PHE A   2      33.800 -30.636  -2.009  0.00  0.00    -0.000 A 
ATOM     29  CZ  PHE A   2      33.130 -29.454  -2.436  0.00  0.00    -0.000 A 
ATOM     30  CE1 PHE A   2      31.740 -29.510  -2.761  0.00  0.00    -0.000 A 
ATOM     31  CD1 PHE A   2      31.040 -30.750  -2.647  0.00  0.00    -0.004 A 
ENDBRANCH  25  26
ENDBRANCH   1  25
TORSDOF 13
REMARK  Name = ../refined-set-2016/4fz3/4fz3_pocket.pdb
REMARK  126 active torsions:
REMARK  status: ('A' for Active; 'I' for Inactive)
REMARK    1  A    between atoms: _1  and  _3
REMARK    2  A    between atoms: _3  and  _4
REMARK    3  A    between atoms: _3  and  _6
REMARK    4  A    between atoms: _6  and  _7
REMARK    5  A    between atoms: _12  and  _13
REMARK    6  A    between atoms: _15  and  _17
REMARK    7  A    between atoms: _17  and  _18
REMARK    8  A    between atoms: _17  and  _20
REMARK    9  A    between atoms: _20  and  _21
REMARK   10  A    between atoms: _21  and  _22
REMARK   11  A    between atoms: _25  and  _27
REMARK   12  A    between atoms: _27  and  _28
REMARK   13  A    between atoms: _27  and  _30
REMARK   14  A    between atoms: _30  and  _31
REMARK   15  A    between atoms: _34  and  _36
REMARK   16  A    between atoms: _36  and  _37
REMARK   17  A    between atoms: _36  and  _39
REMARK   18  A    between atoms: _39  and  _40
REMARK   19  A    between atoms: _46  and  _48
REMARK   20  A    between atoms: _48  and  _49
REMARK   21  A    between atoms: _48  and  _51
REMARK   22  A    between atoms: _51  and  _52
REMARK   23  A    between atoms: _52  and  _53
REMARK   24  A    between atoms: _56  and  _58
REMARK   25  A    between atoms: _58  and  _59
REMARK   26  A    between atoms: _58  and  _61
REMARK   27  A    between atoms: _61  and  _62
REMARK   28  A    between atoms: _68  and  _70
REMARK   29  A    between atoms: _70  and  _71
REMARK   30  A    between atoms: _70  and  _73
REMARK   31  A    between atoms: _73  and  _74
REMARK   32  A    between atoms: _77  and  _79
REMARK   33  A    between atoms: _79  and  _80
REMARK   34  A    between atoms: _79  and  _82
REMARK   35  A    between atoms: _82  and  _83
REMARK   36  A    between atoms: _83  and  _84
REMARK   37  A    between atoms: _89  and  _91
REMARK   38  A    between atoms: _91  and  _92
REMARK   39  A    between atoms: _91  and  _94
REMARK   40  A    between atoms: _94  and  _95
REMARK   41  A    between atoms: _100  and  _102
REMARK   42  A    between atoms: _102  and  _103
REMARK   43  A    between atoms: _102  and  _105
REMARK   44  A    between atoms: _105  and  _106
REMARK   45  A    between atoms: _109  and  _111
REMARK   46  A    between atoms: _111  and  _112
REMARK   47  A    between atoms: _115  and  _117
REMARK   48  A    between atoms: _117  and  _118
REMARK   49  A    between atoms: _117  and  _120
REMARK   50  A    between atoms: _120  and  _121
REMARK   51  A    between atoms: _126  and  _128
REMARK   52  A    between atoms: _128  and  _129
REMARK   53  A    between atoms: _131  and  _133
REMARK   54  A    between atoms: _133  and  _134
REMARK   55  A    between atoms: _133  and  _136
REMARK   56  A    between atoms: _136  and  _137
REMARK   57  A    between atoms: _143  and  _145
REMARK   58  A    between atoms: _145  and  _146
REMARK   59  A    between atoms: _145  and  _148
REMARK   60  A    between atoms: _148  and  _149
REMARK   61  A    between atoms: _149  and  _150
REMARK   62  A    between atoms: _150  and  _151
REMARK   63  A    between atoms: _151  and  _152
REMARK   64  A    between atoms: _156  and  _158
REMARK   65  A    between atoms: _158  and  _159
REMARK   66  A    between atoms: _158  and  _161
REMARK   67  A    between atoms: _161  and  _162
REMARK   68  A    between atoms: _165  and  _167
REMARK   69  A    between atoms: _167  and  _168
REMARK   70  A    between atoms: _167  and  _170
REMARK   71  A    between atoms: _173  and  _175
REMARK   72  A    between atoms: _175  and  _176
REMARK   73  A    between atoms: _175  and  _178
REMARK   74  A    between atoms: _178  and  _179
REMARK   75  A    between atoms: _185  and  _187
REMARK   76  A    between atoms: _187  and  _188
REMARK   77  A    between atoms: _187  and  _190
REMARK   78  A    between atoms: _190  and  _191
REMARK   79  A    between atoms: _197  and  _199
REMARK   80  A    between atoms: _199  and  _200
REMARK   81  A    between atoms: _202  and  _204
REMARK   82  A    between atoms: _204  and  _205
REMARK   83  A    between atoms: _204  and  _207
REMARK   84  A    between atoms: _207  and  _208
REMARK   85  A    between atoms: _208  and  _209
REMARK   86  A    between atoms: _213  and  _214
REMARK   87  A    between atoms: _219  and  _221
REMARK   88  A    between atoms: _221  and  _222
REMARK   89  A    between atoms: _221  and  _224
REMARK   90  A    between atoms: _224  and  _225
REMARK   91  A    between atoms: _229  and  _230
REMARK   92  A    between atoms: _235  and  _237
REMARK   93  A    between atoms: _237  and  _238
REMARK   94  A    between atoms: _237  and  _240
REMARK   95  A    between atoms: _240  and  _241
REMARK   96  A    between atoms: _247  and  _249
REMARK   97  A    between atoms: _249  and  _250
REMARK   98  A    between atoms: _249  and  _252
REMARK   99  A    between atoms: _252  and  _253
REMARK  100  A    between atoms: _256  and  _258
REMARK  101  A    between atoms: _258  and  _259
REMARK  102  A    between atoms: _258  and  _261
REMARK  103  A    between atoms: _261  and  _262
REMARK  104  A    between atoms: _267  and  _269
REMARK  105  A    between atoms: _269  and  _270
REMARK  106  A    between atoms: _269  and  _272
REMARK  107  A    between atoms: _275  and  _277
REMARK  108  A    between atoms: _277  and  _278
REMARK  109  A    between atoms: _277  and  _280
REMARK  110  A    between atoms: _283  and  _285
REMARK  111  A    between atoms: _285  and  _286
REMARK  112  A    between atoms: _285  and  _288
REMARK  113  A    between atoms: _289  and  _290
REMARK  114  A    between atoms: _294  and  _295
REMARK  115  A    between atoms: _300  and  _302
REMARK  116  A    between atoms: _302  and  _303
REMARK  117  A    between atoms: _302  and  _305
REMARK  118  A    between atoms: _305  and  _306
REMARK  119  A    between atoms: _312  and  _314
REMARK  120  A    between atoms: _314  and  _315
REMARK  121  A    between atoms: _314  and  _317
REMARK  122  A    between atoms: _317  and  _318
REMARK  123  A    between atoms: _320  and  _322
REMARK  124  A    between atoms: _322  and  _323
REMARK  125  A    between atoms: _322  and  _325
REMARK  126  A    between atoms: _325  and  _326
REMARK                            x       y       z     vdW  Elec       q    Type
REMARK                         _______ _______ _______ _____ _____    ______ ____
ROOT
ATOM      1  CB  PHE A   1      38.002 -34.661  -4.299  0.00  0.00    +0.051 C 
ENDROOT
BRANCH   1   2
ATOM      2  CG  PHE A   1      38.008 -34.244  -2.829  0.00  0.00    -0.020 A 
ATOM      3  CD2 PHE A   1      39.073 -34.554  -2.002  0.00  0.00    -0.004 A 
ATOM      4  CE2 PHE A   1      39.084 -34.119  -0.648  0.00  0.00    -0.000 A 
ATOM      5  CZ  PHE A   1      38.034 -33.327  -0.184  0.00  0.00    -0.000 A 
ATOM      6  CE1 PHE A   1      37.001 -32.956  -1.003  0.00  0.00    -0.000 A 
ATOM      7  CD1 PHE A   1      36.994 -33.420  -2.342  0.00  0.00    -0.004 A 
ENDBRANCH   1   2
BRANCH   1   8
ATOM      8  CA  PHE A   1      38.547 -33.552  -5.199  0.00  0.00    +0.137 C 
BRANCH   8   9
ATOM      9  N   PHE A   1      38.633 -33.998  -6.603  0.00  0.00    -0.239 NA
ATOM     10  H   PHE A   1      38.293 -34.945  -6.866  0.00  0.00    +0.142 HD
ENDBRANCH   8   9
BRANCH   8  11
ATOM     11  C   PHE A   1      39.936 -33.123  -4.700  0.00  0.00    +0.224 C 
ATOM     12  O   PHE A   1      40.113 -32.055  -4.098  0.00  0.00    -0.287 OA
ENDBRANCH   8  11
ENDBRANCH   1   8
TORSDOF 4
REMARK  Name = ../refined-set-2016/4fz3/4fz3_pocket.pdb
REMARK  126 active torsions:
REMARK  status: ('A' for Active; 'I' for Inactive)
REMARK    1  A    between atoms: _1  and  _3
REMARK    2  A    between atoms: _3  and  _4
REMARK    3  A    between atoms: _3  and  _6
REMARK    4  A    between atoms: _6  and  _7
REMARK    5  A    between atoms: _12  and  _13
REMARK    6  A    between atoms: _15  and  _17
REMARK    7  A    between atoms: _17  and  _18
REMARK    8  A    between atoms: _17  and  _20
REMARK    9  A    between atoms: _20  and  _21
REMARK   10  A    between atoms: _21  and  _22
REMARK   11  A    between atoms: _25  and  _27
REMARK   12  A    between atoms: _27  and  _28
REMARK   13  A    between atoms: _27  and  _30
REMARK   14  A    between atoms: _30  and  _31
REMARK   15  A    between atoms: _34  and  _36
REMARK   16  A    between atoms: _36  and  _37
REMARK   17  A    between atoms: _36  and  _39
REMARK   18  A    between atoms: _39  and  _40
REMARK   19  A    between atoms: _46  and  _48
REMARK   20  A    between atoms: _48  and  _49
REMARK   21  A    between atoms: _48  and  _51
REMARK   22  A    between atoms: _51  and  _52
REMARK   23  A    between atoms: _52  and  _53
REMARK   24  A    between atoms: _56  and  _58
REMARK   25  A    between atoms: _58  and  _59
REMARK   26  A    between atoms: _58  and  _61
REMARK   27  A    between atoms: _61  and  _62
REMARK   28  A    between atoms: _68  and  _70
REMARK   29  A    between atoms: _70  and  _71
REMARK   30  A    between atoms: _70  and  _73
REMARK   31  A    between atoms: _73  and  _74
REMARK   32  A    between atoms: _77  and  _79
REMARK   33  A    between atoms: _79  and  _80
REMARK   34  A    between atoms: _79  and  _82
REMARK   35  A    between atoms: _82  and  _83
REMARK   36  A    between atoms: _83  and  _84
REMARK   37  A    between atoms: _89  and  _91
REMARK   38  A    between atoms: _91  and  _92
REMARK   39  A    between atoms: _91  and  _94
REMARK   40  A    between atoms: _94  and  _95
REMARK   41  A    between atoms: _100  and  _102
REMARK   42  A    between atoms: _102  and  _103
REMARK   43  A    between atoms: _102  and  _105
REMARK   44  A    between atoms: _105  and  _106
REMARK   45  A    between atoms: _109  and  _111
REMARK   46  A    between atoms: _111  and  _112
REMARK   47  A    between atoms: _115  and  _117
REMARK   48  A    between atoms: _117  and  _118
REMARK   49  A    between atoms: _117  and  _120
REMARK   50  A    between atoms: _120  and  _121
REMARK   51  A    between atoms: _126  and  _128
REMARK   52  A    between atoms: _128  and  _129
REMARK   53  A    between atoms: _131  and  _133
REMARK   54  A    between atoms: _133  and  _134
REMARK   55  A    between atoms: _133  and  _136
REMARK   56  A    between atoms: _136  and  _137
REMARK   57  A    between atoms: _143  and  _145
REMARK   58  A    between atoms: _145  and  _146
REMARK   59  A    between atoms: _145  and  _148
REMARK   60  A    between atoms: _148  and  _149
REMARK   61  A    between atoms: _149  and  _150
REMARK   62  A    between atoms: _150  and  _151
REMARK   63  A    between atoms: _151  and  _152
REMARK   64  A    between atoms: _156  and  _158
REMARK   65  A    between atoms: _158  and  _159
REMARK   66  A    between atoms: _158  and  _161
REMARK   67  A    between atoms: _161  and  _162
REMARK   68  A    between atoms: _165  and  _167
REMARK   69  A    between atoms: _167  and  _168
REMARK   70  A    between atoms: _167  and  _170
REMARK   71  A    between atoms: _173  and  _175
REMARK   72  A    between atoms: _175  and  _176
REMARK   73  A    between atoms: _175  and  _178
REMARK   74  A    between atoms: _178  and  _179
REMARK   75  A    between atoms: _185  and  _187
REMARK   76  A    between atoms: _187  and  _188
REMARK   77  A    between atoms: _187  and  _190
REMARK   78  A    between atoms: _190  and  _191
REMARK   79  A    between atoms: _197  and  _199
REMARK   80  A    between atoms: _199  and  _200
REMARK   81  A    between atoms: _202  and  _204
REMARK   82  A    between atoms: _204  and  _205
REMARK   83  A    between atoms: _204  and  _207
REMARK   84  A    between atoms: _207  and  _208
REMARK   85  A    between atoms: _208  and  _209
REMARK   86  A    between atoms: _213  and  _214
REMARK   87  A    between atoms: _219  and  _221
REMARK   88  A    between atoms: _221  and  _222
REMARK   89  A    between atoms: _221  and  _224
REMARK   90  A    between atoms: _224  and  _225
REMARK   91  A    between atoms: _229  and  _230
REMARK   92  A    between atoms: _235  and  _237
REMARK   93  A    between atoms: _237  and  _238
REMARK   94  A    between atoms: _237  and  _240
REMARK   95  A    between atoms: _240  and  _241
REMARK   96  A    between atoms: _247  and  _249
REMARK   97  A    between atoms: _249  and  _250
REMARK   98  A    between atoms: _249  and  _252
REMARK   99  A    between atoms: _252  and  _253
REMARK  100  A    between atoms: _256  and  _258
REMARK  101  A    between atoms: _258  and  _259
REMARK  102  A    between atoms: _258  and  _261
REMARK  103  A    between atoms: _261  and  _262
REMARK  104  A    between atoms: _267  and  _269
REMARK  105  A    between atoms: _269  and  _270
REMARK  106  A    between atoms: _269  and  _272
REMARK  107  A    between atoms: _275  and  _277
REMARK  108  A    between atoms: _277  and  _278
REMARK  109  A    between atoms: _277  and  _280
REMARK  110  A    between atoms: _283  and  _285
REMARK  111  A    between atoms: _285  and  _286
REMARK  112  A    between atoms: _285  and  _288
REMARK  113  A    between atoms: _289  and  _290
REMARK  114  A    between atoms: _294  and  _295
REMARK  115  A    between atoms: _300  and  _302
REMARK  116  A    between atoms: _302  and  _303
REMARK  117  A    between atoms: _302  and  _305
REMARK  118  A    between atoms: _305  and  _306
REMARK  119  A    between atoms: _312  and  _314
REMARK  120  A    between atoms: _314  and  _315
REMARK  121  A    between atoms: _314  and  _317
REMARK  122  A    between atoms: _317  and  _318
REMARK  123  A    between atoms: _320  and  _322
REMARK  124  A    between atoms: _322  and  _323
REMARK  125  A    between atoms: _322  and  _325
REMARK  126  A    between atoms: _325  and  _326
REMARK                            x       y       z     vdW  Elec       q    Type
REMARK                         _______ _______ _______ _____ _____    ______ ____
ROOT
ATOM      1  CA  LEU A   1      40.299 -28.758  -4.972  0.00  0.00    +0.133 C 
ENDROOT
BRANCH   1   2
ATOM      2  N   LEU A   1      40.929 -29.820  -5.769  0.00  0.00    -0.239 NA
ATOM      3  H   LEU A   1      40.413 -30.695  -5.992  0.00  0.00    +0.142 HD
ENDBRANCH   1   2
BRANCH   1   4
ATOM      4  C   LEU A   1      41.044 -28.667  -3.613  0.00  0.00    +0.224 C 
ATOM      5  O   LEU A   1      41.263 -27.576  -3.096  0.00  0.00    -0.287 OA
ENDBRANCH   1   4
BRANCH   1   6
ATOM      6  CB  LEU A   1      38.817 -29.059  -4.695  0.00  0.00    +0.025 C 
BRANCH   6   7
ATOM      7  CG  LEU A   1      38.109 -27.979  -3.853  0.00  0.00    +0.002 C 
ATOM      8  CD2 LEU A   1      36.689 -28.464  -3.384  0.00  0.00    +0.000 C 
ATOM      9  CD1 LEU A   1      37.962 -26.672  -4.606  0.00  0.00    +0.000 C 
ENDBRANCH   6   7
ENDBRANCH   1   6
TORSDOF 4
REMARK  Name = ../refined-set-2016/4fz3/4fz3_pocket.pdb
REMARK  126 active torsions:
REMARK  status: ('A' for Active; 'I' for Inactive)
REMARK    1  A    between atoms: _1  and  _3
REMARK    2  A    between atoms: _3  and  _4
REMARK    3  A    between atoms: _3  and  _6
REMARK    4  A    between atoms: _6  and  _7
REMARK    5  A    between atoms: _12  and  _13
REMARK    6  A    between atoms: _15  and  _17
REMARK    7  A    between atoms: _17  and  _18
REMARK    8  A    between atoms: _17  and  _20
REMARK    9  A    between atoms: _20  and  _21
REMARK   10  A    between atoms: _21  and  _22
REMARK   11  A    between atoms: _25  and  _27
REMARK   12  A    between atoms: _27  and  _28
REMARK   13  A    between atoms: _27  and  _30
REMARK   14  A    between atoms: _30  and  _31
REMARK   15  A    between atoms: _34  and  _36
REMARK   16  A    between atoms: _36  and  _37
REMARK   17  A    between atoms: _36  and  _39
REMARK   18  A    between atoms: _39  and  _40
REMARK   19  A    between atoms: _46  and  _48
REMARK   20  A    between atoms: _48  and  _49
REMARK   21  A    between atoms: _48  and  _51
REMARK   22  A    between atoms: _51  and  _52
REMARK   23  A    between atoms: _52  and  _53
REMARK   24  A    between atoms: _56  and  _58
REMARK   25  A    between atoms: _58  and  _59
REMARK   26  A    between atoms: _58  and  _61
REMARK   27  A    between atoms: _61  and  _62
REMARK   28  A    between atoms: _68  and  _70
REMARK   29  A    between atoms: _70  and  _71
REMARK   30  A    between atoms: _70  and  _73
REMARK   31  A    between atoms: _73  and  _74
REMARK   32  A    between atoms: _77  and  _79
REMARK   33  A    between atoms: _79  and  _80
REMARK   34  A    between atoms: _79  and  _82
REMARK   35  A    between atoms: _82  and  _83
REMARK   36  A    between atoms: _83  and  _84
REMARK   37  A    between atoms: _89  and  _91
REMARK   38  A    between atoms: _91  and  _92
REMARK   39  A    between atoms: _91  and  _94
REMARK   40  A    between atoms: _94  and  _95
REMARK   41  A    between atoms: _100  and  _102
REMARK   42  A    between atoms: _102  and  _103
REMARK   43  A    between atoms: _102  and  _105
REMARK   44  A    between atoms: _105  and  _106
REMARK   45  A    between atoms: _109  and  _111
REMARK   46  A    between atoms: _111  and  _112
REMARK   47  A    between atoms: _115  and  _117
REMARK   48  A    between atoms: _117  and  _118
REMARK   49  A    between atoms: _117  and  _120
REMARK   50  A    between atoms: _120  and  _121
REMARK   51  A    between atoms: _126  and  _128
REMARK   52  A    between atoms: _128  and  _129
REMARK   53  A    between atoms: _131  and  _133
REMARK   54  A    between atoms: _133  and  _134
REMARK   55  A    between atoms: _133  and  _136
REMARK   56  A    between atoms: _136  and  _137
REMARK   57  A    between atoms: _143  and  _145
REMARK   58  A    between atoms: _145  and  _146
REMARK   59  A    between atoms: _145  and  _148
REMARK   60  A    between atoms: _148  and  _149
REMARK   61  A    between atoms: _149  and  _150
REMARK   62  A    between atoms: _150  and  _151
REMARK   63  A    between atoms: _151  and  _152
REMARK   64  A    between atoms: _156  and  _158
REMARK   65  A    between atoms: _158  and  _159
REMARK   66  A    between atoms: _158  and  _161
REMARK   67  A    between atoms: _161  and  _162
REMARK   68  A    between atoms: _165  and  _167
REMARK   69  A    between atoms: _167  and  _168
REMARK   70  A    between atoms: _167  and  _170
REMARK   71  A    between atoms: _173  and  _175
REMARK   72  A    between atoms: _175  and  _176
REMARK   73  A    between atoms: _175  and  _178
REMARK   74  A    between atoms: _178  and  _179
REMARK   75  A    between atoms: _185  and  _187
REMARK   76  A    between atoms: _187  and  _188
REMARK   77  A    between atoms: _187  and  _190
REMARK   78  A    between atoms: _190  and  _191
REMARK   79  A    between atoms: _197  and  _199
REMARK   80  A    between atoms: _199  and  _200
REMARK   81  A    between atoms: _202  and  _204
REMARK   82  A    between atoms: _204  and  _205
REMARK   83  A    between atoms: _204  and  _207
REMARK   84  A    between atoms: _207  and  _208
REMARK   85  A    between atoms: _208  and  _209
REMARK   86  A    between atoms: _213  and  _214
REMARK   87  A    between atoms: _219  and  _221
REMARK   88  A    between atoms: _221  and  _222
REMARK   89  A    between atoms: _221  and  _224
REMARK   90  A    between atoms: _224  and  _225
REMARK   91  A    between atoms: _229  and  _230
REMARK   92  A    between atoms: _235  and  _237
REMARK   93  A    between atoms: _237  and  _238
REMARK   94  A    between atoms: _237  and  _240
REMARK   95  A    between atoms: _240  and  _241
REMARK   96  A    between atoms: _247  and  _249
REMARK   97  A    between atoms: _249  and  _250
REMARK   98  A    between atoms: _249  and  _252
REMARK   99  A    between atoms: _252  and  _253
REMARK  100  A    between atoms: _256  and  _258
REMARK  101  A    between atoms: _258  and  _259
REMARK  102  A    between atoms: _258  and  _261
REMARK  103  A    between atoms: _261  and  _262
REMARK  104  A    between atoms: _267  and  _269
REMARK  105  A    between atoms: _269  and  _270
REMARK  106  A    between atoms: _269  and  _272
REMARK  107  A    between atoms: _275  and  _277
REMARK  108  A    between atoms: _277  and  _278
REMARK  109  A    between atoms: _277  and  _280
REMARK  110  A    between atoms: _283  and  _285
REMARK  111  A    between atoms: _285  and  _286
REMARK  112  A    between atoms: _285  and  _288
REMARK  113  A    between atoms: _289  and  _290
REMARK  114  A    between atoms: _294  and  _295
REMARK  115  A    between atoms: _300  and  _302
REMARK  116  A    between atoms: _302  and  _303
REMARK  117  A    between atoms: _302  and  _305
REMARK  118  A    between atoms: _305  and  _306
REMARK  119  A    between atoms: _312  and  _314
REMARK  120  A    between atoms: _314  and  _315
REMARK  121  A    between atoms: _314  and  _317
REMARK  122  A    between atoms: _317  and  _318
REMARK  123  A    between atoms: _320  and  _322
REMARK  124  A    between atoms: _322  and  _323
REMARK  125  A    between atoms: _322  and  _325
REMARK  126  A    between atoms: _325  and  _326
REMARK                            x       y       z     vdW  Elec       q    Type
REMARK                         _______ _______ _______ _____ _____    ______ ____
ROOT
ATOM      1  CA  ASN A   2      32.444 -23.054   3.959  0.00  0.00    +0.158 C 
ENDROOT
BRANCH   1   3
ATOM      2  C   GLN A   1      30.298 -24.082   4.635  0.00  0.00    +0.238 C 
ATOM      3  N   ASN A   2      31.228 -23.125   4.790  0.00  0.00    -0.297 N 
ATOM      4  H   ASN A   2      31.084 -22.405   5.526  0.00  0.00    +0.150 HD
ATOM      5  O   GLN A   1      30.367 -24.947   3.753  0.00  0.00    -0.274 OA
BRANCH   2   6
ATOM      6  CA  GLN A   1      29.064 -24.028   5.539  0.00  0.00    +0.145 C 
BRANCH   6   7
ATOM      7  N   GLN A   1      29.186 -23.108   6.644  0.00  0.00    -0.238 NA
ATOM      8  H   GLN A   1      28.888 -22.122   6.501  0.00  0.00    +0.142 HD
ENDBRANCH   6   7
BRANCH   6   9
ATOM      9  CB  GLN A   1      27.843 -23.595   4.671  0.00  0.00    +0.036 C 
BRANCH   9  10
ATOM     10  CG  GLN A   1      26.506 -23.670   5.423  0.00  0.00    +0.087 C 
BRANCH  10  11
ATOM     11  CD  GLN A   1      25.308 -23.179   4.567  0.00  0.00    +0.219 C 
ATOM     12  NE2 GLN A   1      25.231 -21.869   4.266  0.00  0.00    -0.329 N 
ATOM     13 HE21 GLN A   1      25.930 -21.204   4.655  0.00  0.00    +0.145 HD
ATOM     14 HE22 GLN A   1      24.473 -21.522   3.645  0.00  0.00    +0.145 HD
ATOM     15  OE1 GLN A   1      24.530 -23.997   4.149  0.00  0.00    -0.275 OA
ENDBRANCH  10  11
ENDBRANCH   9  10
ENDBRANCH   6   9
ENDBRANCH   2   6
ENDBRANCH   1   3
BRANCH   1  16
ATOM     16  C   ASN A   2      33.449 -24.044   4.399  0.00  0.00    +0.241 C 
ATOM     17  O   ASN A   2      33.432 -24.530   5.582  0.00  0.00    -0.273 OA
ATOM     18  N   ILE A   3      34.378 -24.370   3.492  0.00  0.00    -0.298 N 
ATOM     19  H   ILE A   3      34.391 -23.877   2.577  0.00  0.00    +0.150 HD
BRANCH  18  20
ATOM     20  CA  ILE A   3      35.354 -25.383   3.755  0.00  0.00    +0.137 C 
BRANCH  20  21
ATOM     21  C   ILE A   3      36.735 -24.839   3.502  0.00  0.00    +0.227 C 
ATOM     22  O   ILE A   3      37.721 -25.585   3.458  0.00  0.00    -0.286 OA
ENDBRANCH  20  21
BRANCH  20  23
ATOM     23  CB  ILE A   3      35.158 -26.729   2.956  0.00  0.00    +0.026 C 
ATOM     24  CG2 ILE A   3      33.924 -27.407   3.393  0.00  0.00    +0.002 C 
BRANCH  23  25
ATOM     25  CG1 ILE A   3      35.241 -26.525   1.430  0.00  0.00    +0.002 C 
ATOM     26  CD1 ILE A   3      35.153 -27.854   0.546  0.00  0.00    +0.000 C 
ENDBRANCH  23  25
ENDBRANCH  20  23
ENDBRANCH  18  20
ENDBRANCH   1  16
BRANCH   1  27
ATOM     27  CB  ASN A   2      33.049 -21.683   4.065  0.00  0.00    +0.114 C 
BRANCH  27  28
ATOM     28  CG  ASN A   2      32.056 -20.605   3.742  0.00  0.00    +0.222 C 
ATOM     29  ND2 ASN A   2      32.362 -19.349   4.137  0.00  0.00    -0.329 N 
ATOM     30 HD21 ASN A   2      33.217 -19.176   4.703  0.00  0.00    +0.145 HD
ATOM     31 HD22 ASN A   2      31.742 -18.556   3.875  0.00  0.00    +0.145 HD
ATOM     32  OD1 ASN A   2      31.058 -20.881   3.070  0.00  0.00    -0.275 OA
ENDBRANCH  27  28
ENDBRANCH   1  27
TORSDOF 13
REMARK  Name = ../refined-set-2016/4fz3/4fz3_pocket.pdb
REMARK  126 active torsions:
REMARK  status: ('A' for Active; 'I' for Inactive)
REMARK    1  A    between atoms: _1  and  _3
REMARK    2  A    between atoms: _3  and  _4
REMARK    3  A    between atoms: _3  and  _6
REMARK    4  A    between atoms: _6  and  _7
REMARK    5  A    between atoms: _12  and  _13
REMARK    6  A    between atoms: _15  and  _17
REMARK    7  A    between atoms: _17  and  _18
REMARK    8  A    between atoms: _17  and  _20
REMARK    9  A    between atoms: _20  and  _21
REMARK   10  A    between atoms: _21  and  _22
REMARK   11  A    between atoms: _25  and  _27
REMARK   12  A    between atoms: _27  and  _28
REMARK   13  A    between atoms: _27  and  _30
REMARK   14  A    between atoms: _30  and  _31
REMARK   15  A    between atoms: _34  and  _36
REMARK   16  A    between atoms: _36  and  _37
REMARK   17  A    between atoms: _36  and  _39
REMARK   18  A    between atoms: _39  and  _40
REMARK   19  A    between atoms: _46  and  _48
REMARK   20  A    between atoms: _48  and  _49
REMARK   21  A    between atoms: _48  and  _51
REMARK   22  A    between atoms: _51  and  _52
REMARK   23  A    between atoms: _52  and  _53
REMARK   24  A    between atoms: _56  and  _58
REMARK   25  A    between atoms: _58  and  _59
REMARK   26  A    between atoms: _58  and  _61
REMARK   27  A    between atoms: _61  and  _62
REMARK   28  A    between atoms: _68  and  _70
REMARK   29  A    between atoms: _70  and  _71
REMARK   30  A    between atoms: _70  and  _73
REMARK   31  A    between atoms: _73  and  _74
REMARK   32  A    between atoms: _77  and  _79
REMARK   33  A    between atoms: _79  and  _80
REMARK   34  A    between atoms: _79  and  _82
REMARK   35  A    between atoms: _82  and  _83
REMARK   36  A    between atoms: _83  and  _84
REMARK   37  A    between atoms: _89  and  _91
REMARK   38  A    between atoms: _91  and  _92
REMARK   39  A    between atoms: _91  and  _94
REMARK   40  A    between atoms: _94  and  _95
REMARK   41  A    between atoms: _100  and  _102
REMARK   42  A    between atoms: _102  and  _103
REMARK   43  A    between atoms: _102  and  _105
REMARK   44  A    between atoms: _105  and  _106
REMARK   45  A    between atoms: _109  and  _111
REMARK   46  A    between atoms: _111  and  _112
REMARK   47  A    between atoms: _115  and  _117
REMARK   48  A    between atoms: _117  and  _118
REMARK   49  A    between atoms: _117  and  _120
REMARK   50  A    between atoms: _120  and  _121
REMARK   51  A    between atoms: _126  and  _128
REMARK   52  A    between atoms: _128  and  _129
REMARK   53  A    between atoms: _131  and  _133
REMARK   54  A    between atoms: _133  and  _134
REMARK   55  A    between atoms: _133  and  _136
REMARK   56  A    between atoms: _136  and  _137
REMARK   57  A    between atoms: _143  and  _145
REMARK   58  A    between atoms: _145  and  _146
REMARK   59  A    between atoms: _145  and  _148
REMARK   60  A    between atoms: _148  and  _149
REMARK   61  A    between atoms: _149  and  _150
REMARK   62  A    between atoms: _150  and  _151
REMARK   63  A    between atoms: _151  and  _152
REMARK   64  A    between atoms: _156  and  _158
REMARK   65  A    between atoms: _158  and  _159
REMARK   66  A    between atoms: _158  and  _161
REMARK   67  A    between atoms: _161  and  _162
REMARK   68  A    between atoms: _165  and  _167
REMARK   69  A    between atoms: _167  and  _168
REMARK   70  A    between atoms: _167  and  _170
REMARK   71  A    between atoms: _173  and  _175
REMARK   72  A    between atoms: _175  and  _176
REMARK   73  A    between atoms: _175  and  _178
REMARK   74  A    between atoms: _178  and  _179
REMARK   75  A    between atoms: _185  and  _187
REMARK   76  A    between atoms: _187  and  _188
REMARK   77  A    between atoms: _187  and  _190
REMARK   78  A    between atoms: _190  and  _191
REMARK   79  A    between atoms: _197  and  _199
REMARK   80  A    between atoms: _199  and  _200
REMARK   81  A    between atoms: _202  and  _204
REMARK   82  A    between atoms: _204  and  _205
REMARK   83  A    between atoms: _204  and  _207
REMARK   84  A    between atoms: _207  and  _208
REMARK   85  A    between atoms: _208  and  _209
REMARK   86  A    between atoms: _213  and  _214
REMARK   87  A    between atoms: _219  and  _221
REMARK   88  A    between atoms: _221  and  _222
REMARK   89  A    between atoms: _221  and  _224
REMARK   90  A    between atoms: _224  and  _225
REMARK   91  A    between atoms: _229  and  _230
REMARK   92  A    between atoms: _235  and  _237
REMARK   93  A    between atoms: _237  and  _238
REMARK   94  A    between atoms: _237  and  _240
REMARK   95  A    between atoms: _240  and  _241
REMARK   96  A    between atoms: _247  and  _249
REMARK   97  A    between atoms: _249  and  _250
REMARK   98  A    between atoms: _249  and  _252
REMARK   99  A    between atoms: _252  and  _253
REMARK  100  A    between atoms: _256  and  _258
REMARK  101  A    between atoms: _258  and  _259
REMARK  102  A    between atoms: _258  and  _261
REMARK  103  A    between atoms: _261  and  _262
REMARK  104  A    between atoms: _267  and  _269
REMARK  105  A    between atoms: _269  and  _270
REMARK  106  A    between atoms: _269  and  _272
REMARK  107  A    between atoms: _275  and  _277
REMARK  108  A    between atoms: _277  and  _278
REMARK  109  A    between atoms: _277  and  _280
REMARK  110  A    between atoms: _283  and  _285
REMARK  111  A    between atoms: _285  and  _286
REMARK  112  A    between atoms: _285  and  _288
REMARK  113  A    between atoms: _289  and  _290
REMARK  114  A    between atoms: _294  and  _295
REMARK  115  A    between atoms: _300  and  _302
REMARK  116  A    between atoms: _302  and  _303
REMARK  117  A    between atoms: _302  and  _305
REMARK  118  A    between atoms: _305  and  _306
REMARK  119  A    between atoms: _312  and  _314
REMARK  120  A    between atoms: _314  and  _315
REMARK  121  A    between atoms: _314  and  _317
REMARK  122  A    between atoms: _317  and  _318
REMARK  123  A    between atoms: _320  and  _322
REMARK  124  A    between atoms: _322  and  _323
REMARK  125  A    between atoms: _322  and  _325
REMARK  126  A    between atoms: _325  and  _326
REMARK                            x       y       z     vdW  Elec       q    Type
REMARK                         _______ _______ _______ _____ _____    ______ ____
ROOT
ATOM      1  CA  HIS A   2      30.673 -29.311   6.077  0.00  0.00    +0.155 C 
ENDROOT
BRANCH   1   4
ATOM      2  C   ALA A   1      29.507 -28.973   8.167  0.00  0.00    +0.238 C 
ATOM      3  O   ALA A   1      28.938 -30.060   8.060  0.00  0.00    -0.274 OA
ATOM      4  N   HIS A   2      30.324 -28.494   7.221  0.00  0.00    -0.297 N 
ATOM      5  H   HIS A   2      30.709 -27.532   7.308  0.00  0.00    +0.150 HD
BRANCH   2   6
ATOM      6  CA  ALA A   1      29.312 -28.085   9.460  0.00  0.00    +0.145 C 
ATOM      7  CB  ALA A   1      28.003 -27.296   9.388  0.00  0.00    +0.028 C 
BRANCH   6   8
ATOM      8  N   ALA A   1      30.414 -27.114   9.650  0.00  0.00    -0.238 NA
ATOM      9  H   ALA A   1      30.246 -26.097   9.514  0.00  0.00    +0.142 HD
ENDBRANCH   6   8
ENDBRANCH   2   6
ENDBRANCH   1   4
BRANCH   1  10
ATOM     10  C   HIS A   2      32.097 -29.872   6.171  0.00  0.00    +0.241 C 
ATOM     11  N   GLY A   3      32.654 -29.808   7.398  0.00  0.00    -0.296 N 
ATOM     12  H   GLY A   3      32.115 -29.294   8.124  0.00  0.00    +0.150 HD
ATOM     13  O   HIS A   2      32.623 -30.331   5.169  0.00  0.00    -0.273 OA
BRANCH  11  14
ATOM     14  CA  GLY A   3      33.937 -30.384   7.823  0.00  0.00    +0.163 C 
BRANCH  14  15
ATOM     15  C   GLY A   3      35.115 -29.472   7.493  0.00  0.00    +0.229 C 
ATOM     16  O   GLY A   3      34.979 -28.238   7.305  0.00  0.00    -0.286 OA
ENDBRANCH  14  15
ENDBRANCH  11  14
ENDBRANCH   1  10
BRANCH   1  17
ATOM     17  CB  HIS A   2      30.489 -28.490   4.801  0.00  0.00    +0.076 C 
BRANCH  17  18
ATOM     18  CG  HIS A   2      29.053 -28.357   4.415  0.00  0.00    +0.082 A 
ATOM     19  CD2 HIS A   2      27.974 -29.114   4.739  0.00  0.00    +0.115 A 
ATOM     20  NE2 HIS A   2      26.870 -28.509   4.176  0.00  0.00    -0.221 NA
ATOM     21  CE1 HIS A   2      27.272 -27.448   3.498  0.00  0.00    +0.199 A 
ATOM     22  ND1 HIS A   2      28.578 -27.327   3.646  0.00  0.00    -0.227 NA
ENDBRANCH  17  18
ENDBRANCH   1  17
TORSDOF 8
REMARK  Name = ../refined-set-2016/4fz3/4fz3_pocket.pdb
REMARK  126 active torsions:
REMARK  status: ('A' for Active; 'I' for Inactive)
REMARK    1  A    between atoms: _1  and  _3
REMARK    2  A    between atoms: _3  and  _4
REMARK    3  A    between atoms: _3  and  _6
REMARK    4  A    between atoms: _6  and  _7
REMARK    5  A    between atoms: _12  and  _13
REMARK    6  A    between atoms: _15  and  _17
REMARK    7  A    between atoms: _17  and  _18
REMARK    8  A    between atoms: _17  and  _20
REMARK    9  A    between atoms: _20  and  _21
REMARK   10  A    between atoms: _21  and  _22
REMARK   11  A    between atoms: _25  and  _27
REMARK   12  A    between atoms: _27  and  _28
REMARK   13  A    between atoms: _27  and  _30
REMARK   14  A    between atoms: _30  and  _31
REMARK   15  A    between atoms: _34  and  _36
REMARK   16  A    between atoms: _36  and  _37
REMARK   17  A    between atoms: _36  and  _39
REMARK   18  A    between atoms: _39  and  _40
REMARK   19  A    between atoms: _46  and  _48
REMARK   20  A    between atoms: _48  and  _49
REMARK   21  A    between atoms: _48  and  _51
REMARK   22  A    between atoms: _51  and  _52
REMARK   23  A    between atoms: _52  and  _53
REMARK   24  A    between atoms: _56  and  _58
REMARK   25  A    between atoms: _58  and  _59
REMARK   26  A    between atoms: _58  and  _61
REMARK   27  A    between atoms: _61  and  _62
REMARK   28  A    between atoms: _68  and  _70
REMARK   29  A    between atoms: _70  and  _71
REMARK   30  A    between atoms: _70  and  _73
REMARK   31  A    between atoms: _73  and  _74
REMARK   32  A    between atoms: _77  and  _79
REMARK   33  A    between atoms: _79  and  _80
REMARK   34  A    between atoms: _79  and  _82
REMARK   35  A    between atoms: _82  and  _83
REMARK   36  A    between atoms: _83  and  _84
REMARK   37  A    between atoms: _89  and  _91
REMARK   38  A    between atoms: _91  and  _92
REMARK   39  A    between atoms: _91  and  _94
REMARK   40  A    between atoms: _94  and  _95
REMARK   41  A    between atoms: _100  and  _102
REMARK   42  A    between atoms: _102  and  _103
REMARK   43  A    between atoms: _102  and  _105
REMARK   44  A    between atoms: _105  and  _106
REMARK   45  A    between atoms: _109  and  _111
REMARK   46  A    between atoms: _111  and  _112
REMARK   47  A    between atoms: _115  and  _117
REMARK   48  A    between atoms: _117  and  _118
REMARK   49  A    between atoms: _117  and  _120
REMARK   50  A    between atoms: _120  and  _121
REMARK   51  A    between atoms: _126  and  _128
REMARK   52  A    between atoms: _128  and  _129
REMARK   53  A    between atoms: _131  and  _133
REMARK   54  A    between atoms: _133  and  _134
REMARK   55  A    between atoms: _133  and  _136
REMARK   56  A    between atoms: _136  and  _137
REMARK   57  A    between atoms: _143  and  _145
REMARK   58  A    between atoms: _145  and  _146
REMARK   59  A    between atoms: _145  and  _148
REMARK   60  A    between atoms: _148  and  _149
REMARK   61  A    between atoms: _149  and  _150
REMARK   62  A    between atoms: _150  and  _151
REMARK   63  A    between atoms: _151  and  _152
REMARK   64  A    between atoms: _156  and  _158
REMARK   65  A    between atoms: _158  and  _159
REMARK   66  A    between atoms: _158  and  _161
REMARK   67  A    between atoms: _161  and  _162
REMARK   68  A    between atoms: _165  and  _167
REMARK   69  A    between atoms: _167  and  _168
REMARK   70  A    between atoms: _167  and  _170
REMARK   71  A    between atoms: _173  and  _175
REMARK   72  A    between atoms: _175  and  _176
REMARK   73  A    between atoms: _175  and  _178
REMARK   74  A    between atoms: _178  and  _179
REMARK   75  A    between atoms: _185  and  _187
REMARK   76  A    between atoms: _187  and  _188
REMARK   77  A    between atoms: _187  and  _190
REMARK   78  A    between atoms: _190  and  _191
REMARK   79  A    between atoms: _197  and  _199
REMARK   80  A    between atoms: _199  and  _200
REMARK   81  A    between atoms: _202  and  _204
REMARK   82  A    between atoms: _204  and  _205
REMARK   83  A    between atoms: _204  and  _207
REMARK   84  A    between atoms: _207  and  _208
REMARK   85  A    between atoms: _208  and  _209
REMARK   86  A    between atoms: _213  and  _214
REMARK   87  A    between atoms: _219  and  _221
REMARK   88  A    between atoms: _221  and  _222
REMARK   89  A    between atoms: _221  and  _224
REMARK   90  A    between atoms: _224  and  _225
REMARK   91  A    between atoms: _229  and  _230
REMARK   92  A    between atoms: _235  and  _237
REMARK   93  A    between atoms: _237  and  _238
REMARK   94  A    between atoms: _237  and  _240
REMARK   95  A    between atoms: _240  and  _241
REMARK   96  A    between atoms: _247  and  _249
REMARK   97  A    between atoms: _249  and  _250
REMARK   98  A    between atoms: _249  and  _252
REMARK   99  A    between atoms: _252  and  _253
REMARK  100  A    between atoms: _256  and  _258
REMARK  101  A    between atoms: _258  and  _259
REMARK  102  A    between atoms: _258  and  _261
REMARK  103  A    between atoms: _261  and  _262
REMARK  104  A    between atoms: _267  and  _269
REMARK  105  A    between atoms: _269  and  _270
REMARK  106  A    between atoms: _269  and  _272
REMARK  107  A    between atoms: _275  and  _277
REMARK  108  A    between atoms: _277  and  _278
REMARK  109  A    between atoms: _277  and  _280
REMARK  110  A    between atoms: _283  and  _285
REMARK  111  A    between atoms: _285  and  _286
REMARK  112  A    between atoms: _285  and  _288
REMARK  113  A    between atoms: _289  and  _290
REMARK  114  A    between atoms: _294  and  _295
REMARK  115  A    between atoms: _300  and  _302
REMARK  116  A    between atoms: _302  and  _303
REMARK  117  A    between atoms: _302  and  _305
REMARK  118  A    between atoms: _305  and  _306
REMARK  119  A    between atoms: _312  and  _314
REMARK  120  A    between atoms: _314  and  _315
REMARK  121  A    between atoms: _314  and  _317
REMARK  122  A    between atoms: _317  and  _318
REMARK  123  A    between atoms: _320  and  _322
REMARK  124  A    between atoms: _322  and  _323
REMARK  125  A    between atoms: _322  and  _325
REMARK  126  A    between atoms: _325  and  _326
REMARK                            x       y       z     vdW  Elec       q    Type
REMARK                         _______ _______ _______ _____ _____    ______ ____
ROOT
ATOM      1  CB  PHE A   1      41.441 -29.233   4.624  0.00  0.00    +0.051 C 
ENDROOT
BRANCH   1   2
ATOM      2  CG  PHE A   1      40.666 -29.250   3.387  0.00  0.00    -0.020 A 
ATOM      3  CD2 PHE A   1      39.929 -28.126   2.994  0.00  0.00    -0.004 A 
ATOM      4  CE2 PHE A   1      39.188 -28.150   1.755  0.00  0.00    -0.000 A 
ATOM      5  CZ  PHE A   1      39.203 -29.318   0.942  0.00  0.00    -0.000 A 
ATOM      6  CE1 PHE A   1      39.965 -30.412   1.326  0.00  0.00    -0.000 A 
ATOM      7  CD1 PHE A   1      40.682 -30.389   2.556  0.00  0.00    -0.004 A 
ENDBRANCH   1   2
BRANCH   1   8
ATOM      8  CA  PHE A   1      40.866 -30.121   5.687  0.00  0.00    +0.137 C 
BRANCH   8   9
ATOM      9  N   PHE A   1      39.629 -29.514   6.189  0.00  0.00    -0.239 NA
ATOM     10  H   PHE A   1      39.500 -28.484   6.125  0.00  0.00    +0.142 HD
ENDBRANCH   8   9
BRANCH   8  11
ATOM     11  C   PHE A   1      41.926 -30.344   6.748  0.00  0.00    +0.224 C 
ATOM     12  O   PHE A   1      42.955 -30.949   6.436  0.00  0.00    -0.287 OA
ENDBRANCH   8  11
ENDBRANCH   1   8
TORSDOF 4
REMARK  Name = ../refined-set-2016/4fz3/4fz3_pocket.pdb
REMARK  126 active torsions:
REMARK  status: ('A' for Active; 'I' for Inactive)
REMARK    1  A    between atoms: _1  and  _3
REMARK    2  A    between atoms: _3  and  _4
REMARK    3  A    between atoms: _3  and  _6
REMARK    4  A    between atoms: _6  and  _7
REMARK    5  A    between atoms: _12  and  _13
REMARK    6  A    between atoms: _15  and  _17
REMARK    7  A    between atoms: _17  and  _18
REMARK    8  A    between atoms: _17  and  _20
REMARK    9  A    between atoms: _20  and  _21
REMARK   10  A    between atoms: _21  and  _22
REMARK   11  A    between atoms: _25  and  _27
REMARK   12  A    between atoms: _27  and  _28
REMARK   13  A    between atoms: _27  and  _30
REMARK   14  A    between atoms: _30  and  _31
REMARK   15  A    between atoms: _34  and  _36
REMARK   16  A    between atoms: _36  and  _37
REMARK   17  A    between atoms: _36  and  _39
REMARK   18  A    between atoms: _39  and  _40
REMARK   19  A    between atoms: _46  and  _48
REMARK   20  A    between atoms: _48  and  _49
REMARK   21  A    between atoms: _48  and  _51
REMARK   22  A    between atoms: _51  and  _52
REMARK   23  A    between atoms: _52  and  _53
REMARK   24  A    between atoms: _56  and  _58
REMARK   25  A    between atoms: _58  and  _59
REMARK   26  A    between atoms: _58  and  _61
REMARK   27  A    between atoms: _61  and  _62
REMARK   28  A    between atoms: _68  and  _70
REMARK   29  A    between atoms: _70  and  _71
REMARK   30  A    between atoms: _70  and  _73
REMARK   31  A    between atoms: _73  and  _74
REMARK   32  A    between atoms: _77  and  _79
REMARK   33  A    between atoms: _79  and  _80
REMARK   34  A    between atoms: _79  and  _82
REMARK   35  A    between atoms: _82  and  _83
REMARK   36  A    between atoms: _83  and  _84
REMARK   37  A    between atoms: _89  and  _91
REMARK   38  A    between atoms: _91  and  _92
REMARK   39  A    between atoms: _91  and  _94
REMARK   40  A    between atoms: _94  and  _95
REMARK   41  A    between atoms: _100  and  _102
REMARK   42  A    between atoms: _102  and  _103
REMARK   43  A    between atoms: _102  and  _105
REMARK   44  A    between atoms: _105  and  _106
REMARK   45  A    between atoms: _109  and  _111
REMARK   46  A    between atoms: _111  and  _112
REMARK   47  A    between atoms: _115  and  _117
REMARK   48  A    between atoms: _117  and  _118
REMARK   49  A    between atoms: _117  and  _120
REMARK   50  A    between atoms: _120  and  _121
REMARK   51  A    between atoms: _126  and  _128
REMARK   52  A    between atoms: _128  and  _129
REMARK   53  A    between atoms: _131  and  _133
REMARK   54  A    between atoms: _133  and  _134
REMARK   55  A    between atoms: _133  and  _136
REMARK   56  A    between atoms: _136  and  _137
REMARK   57  A    between atoms: _143  and  _145
REMARK   58  A    between atoms: _145  and  _146
REMARK   59  A    between atoms: _145  and  _148
REMARK   60  A    between atoms: _148  and  _149
REMARK   61  A    between atoms: _149  and  _150
REMARK   62  A    between atoms: _150  and  _151
REMARK   63  A    between atoms: _151  and  _152
REMARK   64  A    between atoms: _156  and  _158
REMARK   65  A    between atoms: _158  and  _159
REMARK   66  A    between atoms: _158  and  _161
REMARK   67  A    between atoms: _161  and  _162
REMARK   68  A    between atoms: _165  and  _167
REMARK   69  A    between atoms: _167  and  _168
REMARK   70  A    between atoms: _167  and  _170
REMARK   71  A    between atoms: _173  and  _175
REMARK   72  A    between atoms: _175  and  _176
REMARK   73  A    between atoms: _175  and  _178
REMARK   74  A    between atoms: _178  and  _179
REMARK   75  A    between atoms: _185  and  _187
REMARK   76  A    between atoms: _187  and  _188
REMARK   77  A    between atoms: _187  and  _190
REMARK   78  A    between atoms: _190  and  _191
REMARK   79  A    between atoms: _197  and  _199
REMARK   80  A    between atoms: _199  and  _200
REMARK   81  A    between atoms: _202  and  _204
REMARK   82  A    between atoms: _204  and  _205
REMARK   83  A    between atoms: _204  and  _207
REMARK   84  A    between atoms: _207  and  _208
REMARK   85  A    between atoms: _208  and  _209
REMARK   86  A    between atoms: _213  and  _214
REMARK   87  A    between atoms: _219  and  _221
REMARK   88  A    between atoms: _221  and  _222
REMARK   89  A    between atoms: _221  and  _224
REMARK   90  A    between atoms: _224  and  _225
REMARK   91  A    between atoms: _229  and  _230
REMARK   92  A    between atoms: _235  and  _237
REMARK   93  A    between atoms: _237  and  _238
REMARK   94  A    between atoms: _237  and  _240
REMARK   95  A    between atoms: _240  and  _241
REMARK   96  A    between atoms: _247  and  _249
REMARK   97  A    between atoms: _249  and  _250
REMARK   98  A    between atoms: _249  and  _252
REMARK   99  A    between atoms: _252  and  _253
REMARK  100  A    between atoms: _256  and  _258
REMARK  101  A    between atoms: _258  and  _259
REMARK  102  A    between atoms: _258  and  _261
REMARK  103  A    between atoms: _261  and  _262
REMARK  104  A    between atoms: _267  and  _269
REMARK  105  A    between atoms: _269  and  _270
REMARK  106  A    between atoms: _269  and  _272
REMARK  107  A    between atoms: _275  and  _277
REMARK  108  A    between atoms: _277  and  _278
REMARK  109  A    between atoms: _277  and  _280
REMARK  110  A    between atoms: _283  and  _285
REMARK  111  A    between atoms: _285  and  _286
REMARK  112  A    between atoms: _285  and  _288
REMARK  113  A    between atoms: _289  and  _290
REMARK  114  A    between atoms: _294  and  _295
REMARK  115  A    between atoms: _300  and  _302
REMARK  116  A    between atoms: _302  and  _303
REMARK  117  A    between atoms: _302  and  _305
REMARK  118  A    between atoms: _305  and  _306
REMARK  119  A    between atoms: _312  and  _314
REMARK  120  A    between atoms: _314  and  _315
REMARK  121  A    between atoms: _314  and  _317
REMARK  122  A    between atoms: _317  and  _318
REMARK  123  A    between atoms: _320  and  _322
REMARK  124  A    between atoms: _322  and  _323
REMARK  125  A    between atoms: _322  and  _325
REMARK  126  A    between atoms: _325  and  _326
REMARK                            x       y       z     vdW  Elec       q    Type
REMARK                         _______ _______ _______ _____ _____    ______ ____
ROOT
ATOM      1  CG  LYS A   1      37.747 -37.902   1.752  0.00  0.00    -0.000 C 
ENDROOT
BRANCH   1   2
ATOM      2  CB  LYS A   1      38.709 -38.986   2.266  0.00  0.00    +0.025 C 
BRANCH   2   3
ATOM      3  CA  LYS A   1      40.132 -38.571   2.605  0.00  0.00    +0.133 C 
BRANCH   3   4
ATOM      4  N   LYS A   1      40.922 -39.775   2.970  0.00  0.00    -0.239 NA
ATOM      5  H   LYS A   1      40.495 -40.476   3.608  0.00  0.00    +0.142 HD
ENDBRANCH   3   4
BRANCH   3   6
ATOM      6  C   LYS A   1      40.062 -37.491   3.709  0.00  0.00    +0.224 C 
ATOM      7  O   LYS A   1      39.626 -37.800   4.829  0.00  0.00    -0.287 OA
ENDBRANCH   3   6
ENDBRANCH   2   3
ENDBRANCH   1   2
BRANCH   1   8
ATOM      8  CD  LYS A   1      36.357 -38.589   1.726  0.00  0.00    -0.024 C 
BRANCH   8   9
ATOM      9  CE  LYS A   1      35.267 -37.592   2.088  0.00  0.00    -0.086 C 
BRANCH   9  10
ATOM     10  NZ  LYS A   1      35.240 -37.303   3.575  0.00  0.00    +0.380 N 
ATOM     11  HZ1 LYS A   1      35.062 -38.186   4.095  0.00  0.00    -0.089 HD
ATOM     12  HZ2 LYS A   1      36.156 -36.906   3.866  0.00  0.00    -0.089 HD
ATOM     13  HZ3 LYS A   1      34.484 -36.619   3.780  0.00  0.00    -0.089 HD
ENDBRANCH   9  10
ENDBRANCH   8   9
ENDBRANCH   1   8
TORSDOF 7
REMARK  Name = ../refined-set-2016/4fz3/4fz3_pocket.pdb
REMARK  126 active torsions:
REMARK  status: ('A' for Active; 'I' for Inactive)
REMARK    1  A    between atoms: _1  and  _3
REMARK    2  A    between atoms: _3  and  _4
REMARK    3  A    between atoms: _3  and  _6
REMARK    4  A    between atoms: _6  and  _7
REMARK    5  A    between atoms: _12  and  _13
REMARK    6  A    between atoms: _15  and  _17
REMARK    7  A    between atoms: _17  and  _18
REMARK    8  A    between atoms: _17  and  _20
REMARK    9  A    between atoms: _20  and  _21
REMARK   10  A    between atoms: _21  and  _22
REMARK   11  A    between atoms: _25  and  _27
REMARK   12  A    between atoms: _27  and  _28
REMARK   13  A    between atoms: _27  and  _30
REMARK   14  A    between atoms: _30  and  _31
REMARK   15  A    between atoms: _34  and  _36
REMARK   16  A    between atoms: _36  and  _37
REMARK   17  A    between atoms: _36  and  _39
REMARK   18  A    between atoms: _39  and  _40
REMARK   19  A    between atoms: _46  and  _48
REMARK   20  A    between atoms: _48  and  _49
REMARK   21  A    between atoms: _48  and  _51
REMARK   22  A    between atoms: _51  and  _52
REMARK   23  A    between atoms: _52  and  _53
REMARK   24  A    between atoms: _56  and  _58
REMARK   25  A    between atoms: _58  and  _59
REMARK   26  A    between atoms: _58  and  _61
REMARK   27  A    between atoms: _61  and  _62
REMARK   28  A    between atoms: _68  and  _70
REMARK   29  A    between atoms: _70  and  _71
REMARK   30  A    between atoms: _70  and  _73
REMARK   31  A    between atoms: _73  and  _74
REMARK   32  A    between atoms: _77  and  _79
REMARK   33  A    between atoms: _79  and  _80
REMARK   34  A    between atoms: _79  and  _82
REMARK   35  A    between atoms: _82  and  _83
REMARK   36  A    between atoms: _83  and  _84
REMARK   37  A    between atoms: _89  and  _91
REMARK   38  A    between atoms: _91  and  _92
REMARK   39  A    between atoms: _91  and  _94
REMARK   40  A    between atoms: _94  and  _95
REMARK   41  A    between atoms: _100  and  _102
REMARK   42  A    between atoms: _102  and  _103
REMARK   43  A    between atoms: _102  and  _105
REMARK   44  A    between atoms: _105  and  _106
REMARK   45  A    between atoms: _109  and  _111
REMARK   46  A    between atoms: _111  and  _112
REMARK   47  A    between atoms: _115  and  _117
REMARK   48  A    between atoms: _117  and  _118
REMARK   49  A    between atoms: _117  and  _120
REMARK   50  A    between atoms: _120  and  _121
REMARK   51  A    between atoms: _126  and  _128
REMARK   52  A    between atoms: _128  and  _129
REMARK   53  A    between atoms: _131  and  _133
REMARK   54  A    between atoms: _133  and  _134
REMARK   55  A    between atoms: _133  and  _136
REMARK   56  A    between atoms: _136  and  _137
REMARK   57  A    between atoms: _143  and  _145
REMARK   58  A    between atoms: _145  and  _146
REMARK   59  A    between atoms: _145  and  _148
REMARK   60  A    between atoms: _148  and  _149
REMARK   61  A    between atoms: _149  and  _150
REMARK   62  A    between atoms: _150  and  _151
REMARK   63  A    between atoms: _151  and  _152
REMARK   64  A    between atoms: _156  and  _158
REMARK   65  A    between atoms: _158  and  _159
REMARK   66  A    between atoms: _158  and  _161
REMARK   67  A    between atoms: _161  and  _162
REMARK   68  A    between atoms: _165  and  _167
REMARK   69  A    between atoms: _167  and  _168
REMARK   70  A    between atoms: _167  and  _170
REMARK   71  A    between atoms: _173  and  _175
REMARK   72  A    between atoms: _175  and  _176
REMARK   73  A    between atoms: _175  and  _178
REMARK   74  A    between atoms: _178  and  _179
REMARK   75  A    between atoms: _185  and  _187
REMARK   76  A    between atoms: _187  and  _188
REMARK   77  A    between atoms: _187  and  _190
REMARK   78  A    between atoms: _190  and  _191
REMARK   79  A    between atoms: _197  and  _199
REMARK   80  A    between atoms: _199  and  _200
REMARK   81  A    between atoms: _202  and  _204
REMARK   82  A    between atoms: _204  and  _205
REMARK   83  A    between atoms: _204  and  _207
REMARK   84  A    between atoms: _207  and  _208
REMARK   85  A    between atoms: _208  and  _209
REMARK   86  A    between atoms: _213  and  _214
REMARK   87  A    between atoms: _219  and  _221
REMARK   88  A    between atoms: _221  and  _222
REMARK   89  A    between atoms: _221  and  _224
REMARK   90  A    between atoms: _224  and  _225
REMARK   91  A    between atoms: _229  and  _230
REMARK   92  A    between atoms: _235  and  _237
REMARK   93  A    between atoms: _237  and  _238
REMARK   94  A    between atoms: _237  and  _240
REMARK   95  A    between atoms: _240  and  _241
REMARK   96  A    between atoms: _247  and  _249
REMARK   97  A    between atoms: _249  and  _250
REMARK   98  A    between atoms: _249  and  _252
REMARK   99  A    between atoms: _252  and  _253
REMARK  100  A    between atoms: _256  and  _258
REMARK  101  A    between atoms: _258  and  _259
REMARK  102  A    between atoms: _258  and  _261
REMARK  103  A    between atoms: _261  and  _262
REMARK  104  A    between atoms: _267  and  _269
REMARK  105  A    between atoms: _269  and  _270
REMARK  106  A    between atoms: _269  and  _272
REMARK  107  A    between atoms: _275  and  _277
REMARK  108  A    between atoms: _277  and  _278
REMARK  109  A    between atoms: _277  and  _280
REMARK  110  A    between atoms: _283  and  _285
REMARK  111  A    between atoms: _285  and  _286
REMARK  112  A    between atoms: _285  and  _288
REMARK  113  A    between atoms: _289  and  _290
REMARK  114  A    between atoms: _294  and  _295
REMARK  115  A    between atoms: _300  and  _302
REMARK  116  A    between atoms: _302  and  _303
REMARK  117  A    between atoms: _302  and  _305
REMARK  118  A    between atoms: _305  and  _306
REMARK  119  A    between atoms: _312  and  _314
REMARK  120  A    between atoms: _314  and  _315
REMARK  121  A    between atoms: _314  and  _317
REMARK  122  A    between atoms: _317  and  _318
REMARK  123  A    between atoms: _320  and  _322
REMARK  124  A    between atoms: _322  and  _323
REMARK  125  A    between atoms: _322  and  _325
REMARK  126  A    between atoms: _325  and  _326
REMARK                            x       y       z     vdW  Elec       q    Type
REMARK                         _______ _______ _______ _____ _____    ______ ____
ROOT
ATOM      1  C   PHE A   4      26.215 -37.283   0.786  0.00  0.00    +0.241 C 
ATOM      2  N   GLY A   5      25.140 -37.337   1.562  0.00  0.00    -0.295 N 
ATOM      3  H   GLY A   5      24.577 -36.476   1.717  0.00  0.00    +0.150 HD
ATOM      4  O   PHE A   4      26.928 -38.242   0.632  0.00  0.00    -0.273 OA
ENDROOT
BRANCH   2   5
ATOM      5  CA  GLY A   5      24.736 -38.578   2.199  0.00  0.00    +0.176 C 
BRANCH   5   6
ATOM      6  C   GLY A   5      25.436 -38.854   3.527  0.00  0.00    +0.243 C 
ATOM      7  O   GLY A   5      25.018 -39.767   4.260  0.00  0.00    -0.273 OA
ATOM      8  N   GLU A   6      26.512 -38.113   3.846  0.00  0.00    -0.297 N 
ATOM      9  H   GLU A   6      26.827 -37.361   3.201  0.00  0.00    +0.150 HD
BRANCH   8  10
ATOM     10  CA  GLU A   6      27.245 -38.352   5.091  0.00  0.00    +0.149 C 
BRANCH  10  11
ATOM     11  C   GLU A   6      26.580 -37.613   6.254  0.00  0.00    +0.244 C 
ATOM     12  N   PRO A   7      26.680 -38.164   7.465  0.00  0.00    -0.272 N 
ATOM     13  CA  PRO A   7      26.139 -37.412   8.664  0.00  0.00    +0.152 C 
ATOM     14  CB  PRO A   7      26.459 -38.353   9.850  0.00  0.00    +0.031 C 
ATOM     15  CG  PRO A   7      27.530 -39.342   9.290  0.00  0.00    +0.024 C 
ATOM     16  CD  PRO A   7      27.174 -39.509   7.829  0.00  0.00    +0.094 C 
ATOM     17  O   GLU A   6      25.941 -36.581   6.052  0.00  0.00    -0.273 OA
BRANCH  13  18
ATOM     18  C   PRO A   7      26.933 -36.099   8.802  0.00  0.00    +0.241 C 
ATOM     19  N   LEU A   8      26.292 -35.051   9.263  0.00  0.00    -0.297 N 
ATOM     20  H   LEU A   8      25.262 -35.088   9.399  0.00  0.00    +0.150 HD
ATOM     21  O   PRO A   7      28.102 -36.034   8.447  0.00  0.00    -0.273 OA
BRANCH  19  22
ATOM     22  CA  LEU A   8      27.034 -33.824   9.587  0.00  0.00    +0.149 C 
BRANCH  22  23
ATOM     23  C   LEU A   8      27.999 -34.136  10.767  0.00  0.00    +0.244 C 
ATOM     24  O   LEU A   8      27.882 -35.167  11.408  0.00  0.00    -0.273 OA
ATOM     25  N   PRO A   9      29.033 -33.299  10.975  0.00  0.00    -0.273 N 
ATOM     26  CA  PRO A   9      29.987 -33.721  12.002  0.00  0.00    +0.140 C 
ATOM     27  CB  PRO A   9      31.020 -32.581  11.971  0.00  0.00    +0.030 C 
ATOM     28  CG  PRO A   9      30.973 -32.061  10.565  0.00  0.00    +0.024 C 
ATOM     29  CD  PRO A   9      29.421 -32.025  10.347  0.00  0.00    +0.094 C 
BRANCH  26  30
ATOM     30  C   PRO A   9      29.298 -33.790  13.408  0.00  0.00    +0.227 C 
ATOM     31  O   PRO A   9      28.337 -33.086  13.631  0.00  0.00    -0.286 OA
ENDBRANCH  26  30
ENDBRANCH  22  23
BRANCH  22  32
ATOM     32  CB  LEU A   8      26.034 -32.746   9.918  0.00  0.00    +0.029 C 
BRANCH  32  33
ATOM     33  CG  LEU A   8      25.154 -32.390   8.738  0.00  0.00    +0.002 C 
ATOM     34  CD2 LEU A   8      24.027 -31.458   9.230  0.00  0.00    +0.000 C 
ATOM     35  CD1 LEU A   8      26.014 -31.628   7.735  0.00  0.00    +0.000 C 
ENDBRANCH  32  33
ENDBRANCH  22  32
ENDBRANCH  19  22
ENDBRANCH  13  18
ENDBRANCH  10  11
BRANCH  10  36
ATOM     36  CB  GLU A   6      28.715 -37.912   4.939  0.00  0.00    +0.041 C 
BRANCH  36  37
ATOM     37  CG  GLU A   6      29.571 -38.940   4.123  0.00  0.00    +0.116 C 
BRANCH  37  38
ATOM     38  CD  GLU A   6      31.029 -38.659   4.278  0.00  0.00    +0.365 C 
ATOM     39  OE2 GLU A   6      31.766 -39.624   4.463  0.00  0.00    -0.246 OA
ATOM     40  OE1 GLU A   6      31.454 -37.467   4.175  0.00  0.00    -0.246 OA
ENDBRANCH  37  38
ENDBRANCH  36  37
ENDBRANCH  10  36
ENDBRANCH   8  10
ENDBRANCH   5   6
ENDBRANCH   2   5
BRANCH   1  41
ATOM     41  CA  PHE A   4      26.571 -35.926   0.204  0.00  0.00    +0.153 C 
BRANCH  41  44
ATOM     42  C   PHE A   3      28.709 -35.712   1.409  0.00  0.00    +0.241 C 
ATOM     43  O   PHE A   3      28.152 -36.105   2.472  0.00  0.00    -0.273 OA
ATOM     44  N   PHE A   4      28.008 -35.499   0.307  0.00  0.00    -0.297 N 
ATOM     45  H   PHE A   4      28.460 -35.028  -0.502  0.00  0.00    +0.150 HD
BRANCH  42  46
ATOM     46  CA  PHE A   3      30.227 -35.488   1.331  0.00  0.00    +0.153 C 
BRANCH  46  48
ATOM     47  C   VAL A   2      31.010 -34.084   3.152  0.00  0.00    +0.241 C 
ATOM     48  N   PHE A   3      30.757 -35.279   2.713  0.00  0.00    -0.297 N 
ATOM     49  H   PHE A   3      30.925 -36.100   3.329  0.00  0.00    +0.150 HD
ATOM     50  O   VAL A   2      30.841 -33.061   2.462  0.00  0.00    -0.273 OA
BRANCH  47  51
ATOM     51  CA  VAL A   2      31.530 -34.005   4.631  0.00  0.00    +0.148 C 
BRANCH  51  53
ATOM     52  C   ILE A   1      33.907 -33.797   4.194  0.00  0.00    +0.238 C 
ATOM     53  N   VAL A   2      32.763 -33.271   4.604  0.00  0.00    -0.297 N 
ATOM     54  H   VAL A   2      32.758 -32.281   4.921  0.00  0.00    +0.150 HD
ATOM     55  O   ILE A   1      34.053 -35.014   3.937  0.00  0.00    -0.274 OA
BRANCH  52  56
ATOM     56  CA  ILE A   1      35.085 -32.845   4.164  0.00  0.00    +0.145 C 
BRANCH  56  57
ATOM     57  CB  ILE A   1      35.403 -32.346   2.729  0.00  0.00    +0.025 C 
ATOM     58  CG2 ILE A   1      34.264 -31.553   2.095  0.00  0.00    +0.002 C 
BRANCH  57  59
ATOM     59  CG1 ILE A   1      36.687 -31.550   2.732  0.00  0.00    +0.002 C 
ATOM     60  CD1 ILE A   1      36.711 -30.275   3.752  0.00  0.00    +0.000 C 
ENDBRANCH  57  59
ENDBRANCH  56  57
BRANCH  56  61
ATOM     61  N   ILE A   1      36.262 -33.514   4.816  0.00  0.00    -0.238 NA
ATOM     62  H   ILE A   1      37.040 -33.857   4.217  0.00  0.00    +0.142 HD
ENDBRANCH  56  61
ENDBRANCH  52  56
ENDBRANCH  51  53
BRANCH  51  63
ATOM     63  CB  VAL A   2      30.425 -33.333   5.565  0.00  0.00    +0.027 C 
ATOM     64  CG2 VAL A   2      30.932 -33.249   7.115  0.00  0.00    +0.002 C 
ATOM     65  CG1 VAL A   2      29.066 -34.153   5.506  0.00  0.00    +0.002 C 
ENDBRANCH  51  63
ENDBRANCH  47  51
ENDBRANCH  46  48
BRANCH  46  66
ATOM     66  CB  PHE A   3      30.938 -36.723   0.752  0.00  0.00    +0.055 C 
BRANCH  66  67
ATOM     67  CG  PHE A   3      32.302 -36.435   0.113  0.00  0.00    -0.020 A 
ATOM     68  CD2 PHE A   3      33.032 -35.301   0.453  0.00  0.00    -0.004 A 
ATOM     69  CE2 PHE A   3      34.242 -35.021  -0.109  0.00  0.00    -0.000 A 
ATOM     70  CZ  PHE A   3      34.787 -35.877  -1.076  0.00  0.00    -0.000 A 
ATOM     71  CE1 PHE A   3      34.046 -37.062  -1.459  0.00  0.00    -0.000 A 
ATOM     72  CD1 PHE A   3      32.822 -37.309  -0.869  0.00  0.00    -0.004 A 
ENDBRANCH  66  67
ENDBRANCH  46  66
ENDBRANCH  42  46
ENDBRANCH  41  44
BRANCH  41  73
ATOM     73  CB  PHE A   4      26.037 -35.705  -1.205  0.00  0.00    +0.055 C 
BRANCH  73  74
ATOM     74  CG  PHE A   4      26.185 -34.277  -1.655  0.00  0.00    -0.020 A 
ATOM     75  CD2 PHE A   4      25.394 -33.280  -1.098  0.00  0.00    -0.004 A 
ATOM     76  CE2 PHE A   4      25.512 -31.969  -1.536  0.00  0.00    -0.000 A 
ATOM     77  CZ  PHE A   4      26.488 -31.623  -2.528  0.00  0.00    -0.000 A 
ATOM     78  CE1 PHE A   4      27.302 -32.620  -3.074  0.00  0.00    -0.000 A 
ATOM     79  CD1 PHE A   4      27.120 -33.940  -2.631  0.00  0.00    -0.004 A 
ENDBRANCH  73  74
ENDBRANCH  41  73
ENDBRANCH   1  41
TORSDOF 28
REMARK  Name = ../refined-set-2016/4fz3/4fz3_pocket.pdb
REMARK  126 active torsions:
REMARK  status: ('A' for Active; 'I' for Inactive)
REMARK    1  A    between atoms: _1  and  _3
REMARK    2  A    between atoms: _3  and  _4
REMARK    3  A    between atoms: _3  and  _6
REMARK    4  A    between atoms: _6  and  _7
REMARK    5  A    between atoms: _12  and  _13
REMARK    6  A    between atoms: _15  and  _17
REMARK    7  A    between atoms: _17  and  _18
REMARK    8  A    between atoms: _17  and  _20
REMARK    9  A    between atoms: _20  and  _21
REMARK   10  A    between atoms: _21  and  _22
REMARK   11  A    between atoms: _25  and  _27
REMARK   12  A    between atoms: _27  and  _28
REMARK   13  A    between atoms: _27  and  _30
REMARK   14  A    between atoms: _30  and  _31
REMARK   15  A    between atoms: _34  and  _36
REMARK   16  A    between atoms: _36  and  _37
REMARK   17  A    between atoms: _36  and  _39
REMARK   18  A    between atoms: _39  and  _40
REMARK   19  A    between atoms: _46  and  _48
REMARK   20  A    between atoms: _48  and  _49
REMARK   21  A    between atoms: _48  and  _51
REMARK   22  A    between atoms: _51  and  _52
REMARK   23  A    between atoms: _52  and  _53
REMARK   24  A    between atoms: _56  and  _58
REMARK   25  A    between atoms: _58  and  _59
REMARK   26  A    between atoms: _58  and  _61
REMARK   27  A    between atoms: _61  and  _62
REMARK   28  A    between atoms: _68  and  _70
REMARK   29  A    between atoms: _70  and  _71
REMARK   30  A    between atoms: _70  and  _73
REMARK   31  A    between atoms: _73  and  _74
REMARK   32  A    between atoms: _77  and  _79
REMARK   33  A    between atoms: _79  and  _80
REMARK   34  A    between atoms: _79  and  _82
REMARK   35  A    between atoms: _82  and  _83
REMARK   36  A    between atoms: _83  and  _84
REMARK   37  A    between atoms: _89  and  _91
REMARK   38  A    between atoms: _91  and  _92
REMARK   39  A    between atoms: _91  and  _94
REMARK   40  A    between atoms: _94  and  _95
REMARK   41  A    between atoms: _100  and  _102
REMARK   42  A    between atoms: _102  and  _103
REMARK   43  A    between atoms: _102  and  _105
REMARK   44  A    between atoms: _105  and  _106
REMARK   45  A    between atoms: _109  and  _111
REMARK   46  A    between atoms: _111  and  _112
REMARK   47  A    between atoms: _115  and  _117
REMARK   48  A    between atoms: _117  and  _118
REMARK   49  A    between atoms: _117  and  _120
REMARK   50  A    between atoms: _120  and  _121
REMARK   51  A    between atoms: _126  and  _128
REMARK   52  A    between atoms: _128  and  _129
REMARK   53  A    between atoms: _131  and  _133
REMARK   54  A    between atoms: _133  and  _134
REMARK   55  A    between atoms: _133  and  _136
REMARK   56  A    between atoms: _136  and  _137
REMARK   57  A    between atoms: _143  and  _145
REMARK   58  A    between atoms: _145  and  _146
REMARK   59  A    between atoms: _145  and  _148
REMARK   60  A    between atoms: _148  and  _149
REMARK   61  A    between atoms: _149  and  _150
REMARK   62  A    between atoms: _150  and  _151
REMARK   63  A    between atoms: _151  and  _152
REMARK   64  A    between atoms: _156  and  _158
REMARK   65  A    between atoms: _158  and  _159
REMARK   66  A    between atoms: _158  and  _161
REMARK   67  A    between atoms: _161  and  _162
REMARK   68  A    between atoms: _165  and  _167
REMARK   69  A    between atoms: _167  and  _168
REMARK   70  A    between atoms: _167  and  _170
REMARK   71  A    between atoms: _173  and  _175
REMARK   72  A    between atoms: _175  and  _176
REMARK   73  A    between atoms: _175  and  _178
REMARK   74  A    between atoms: _178  and  _179
REMARK   75  A    between atoms: _185  and  _187
REMARK   76  A    between atoms: _187  and  _188
REMARK   77  A    between atoms: _187  and  _190
REMARK   78  A    between atoms: _190  and  _191
REMARK   79  A    between atoms: _197  and  _199
REMARK   80  A    between atoms: _199  and  _200
REMARK   81  A    between atoms: _202  and  _204
REMARK   82  A    between atoms: _204  and  _205
REMARK   83  A    between atoms: _204  and  _207
REMARK   84  A    between atoms: _207  and  _208
REMARK   85  A    between atoms: _208  and  _209
REMARK   86  A    between atoms: _213  and  _214
REMARK   87  A    between atoms: _219  and  _221
REMARK   88  A    between atoms: _221  and  _222
REMARK   89  A    between atoms: _221  and  _224
REMARK   90  A    between atoms: _224  and  _225
REMARK   91  A    between atoms: _229  and  _230
REMARK   92  A    between atoms: _235  and  _237
REMARK   93  A    between atoms: _237  and  _238
REMARK   94  A    between atoms: _237  and  _240
REMARK   95  A    between atoms: _240  and  _241
REMARK   96  A    between atoms: _247  and  _249
REMARK   97  A    between atoms: _249  and  _250
REMARK   98  A    between atoms: _249  and  _252
REMARK   99  A    between atoms: _252  and  _253
REMARK  100  A    between atoms: _256  and  _258
REMARK  101  A    between atoms: _258  and  _259
REMARK  102  A    between atoms: _258  and  _261
REMARK  103  A    between atoms: _261  and  _262
REMARK  104  A    between atoms: _267  and  _269
REMARK  105  A    between atoms: _269  and  _270
REMARK  106  A    between atoms: _269  and  _272
REMARK  107  A    between atoms: _275  and  _277
REMARK  108  A    between atoms: _277  and  _278
REMARK  109  A    between atoms: _277  and  _280
REMARK  110  A    between atoms: _283  and  _285
REMARK  111  A    between atoms: _285  and  _286
REMARK  112  A    between atoms: _285  and  _288
REMARK  113  A    between atoms: _289  and  _290
REMARK  114  A    between atoms: _294  and  _295
REMARK  115  A    between atoms: _300  and  _302
REMARK  116  A    between atoms: _302  and  _303
REMARK  117  A    between atoms: _302  and  _305
REMARK  118  A    between atoms: _305  and  _306
REMARK  119  A    between atoms: _312  and  _314
REMARK  120  A    between atoms: _314  and  _315
REMARK  121  A    between atoms: _314  and  _317
REMARK  122  A    between atoms: _317  and  _318
REMARK  123  A    between atoms: _320  and  _322
REMARK  124  A    between atoms: _322  and  _323
REMARK  125  A    between atoms: _322  and  _325
REMARK  126  A    between atoms: _325  and  _326
REMARK                            x       y       z     vdW  Elec       q    Type
REMARK                         _______ _______ _______ _____ _____    ______ ____
ROOT
ATOM      1  C   PHE A   1      25.733 -30.257  15.806  0.00  0.00    +0.239 C 
ATOM      2  N   LEU A   2      25.774 -31.358  16.566  0.00  0.00    -0.298 N 
ATOM      3  H   LEU A   2      26.482 -32.087  16.348  0.00  0.00    +0.150 HD
ATOM      4  O   PHE A   1      24.826 -29.416  15.879  0.00  0.00    -0.274 OA
ENDROOT
BRANCH   1   5
ATOM      5  CA  PHE A   1      26.839 -30.086  14.752  0.00  0.00    +0.149 C 
BRANCH   5   6
ATOM      6  N   PHE A   1      28.144 -30.671  15.140  0.00  0.00    -0.238 NA
ATOM      7  H   PHE A   1      28.643 -31.335  14.514  0.00  0.00    +0.142 HD
ENDBRANCH   5   6
BRANCH   5   8
ATOM      8  CB  PHE A   1      26.344 -30.673  13.427  0.00  0.00    +0.053 C 
BRANCH   8   9
ATOM      9  CG  PHE A   1      25.232 -29.908  12.845  0.00  0.00    -0.020 A 
ATOM     10  CD2 PHE A   1      23.932 -30.398  12.899  0.00  0.00    -0.004 A 
ATOM     11  CE2 PHE A   1      22.863 -29.643  12.377  0.00  0.00    -0.000 A 
ATOM     12  CZ  PHE A   1      23.134 -28.423  11.769  0.00  0.00    -0.000 A 
ATOM     13  CE1 PHE A   1      24.437 -27.933  11.683  0.00  0.00    -0.000 A 
ATOM     14  CD1 PHE A   1      25.486 -28.677  12.246  0.00  0.00    -0.004 A 
ENDBRANCH   8   9
ENDBRANCH   5   8
ENDBRANCH   1   5
BRANCH   2  15
ATOM     15  CA  LEU A   2      24.859 -31.580  17.697  0.00  0.00    +0.137 C 
BRANCH  15  16
ATOM     16  C   LEU A   2      24.822 -30.425  18.703  0.00  0.00    +0.227 C 
ATOM     17  O   LEU A   2      23.927 -30.375  19.514  0.00  0.00    -0.286 OA
ENDBRANCH  15  16
BRANCH  15  18
ATOM     18  CB  LEU A   2      25.124 -32.891  18.457  0.00  0.00    +0.028 C 
BRANCH  18  19
ATOM     19  CG  LEU A   2      24.894 -34.204  17.693  0.00  0.00    +0.002 C 
ATOM     20  CD2 LEU A   2      25.363 -35.436  18.456  0.00  0.00    +0.000 C 
ATOM     21  CD1 LEU A   2      23.410 -34.377  17.326  0.00  0.00    +0.000 C 
ENDBRANCH  18  19
ENDBRANCH  15  18
ENDBRANCH   2  15
TORSDOF 8
REMARK  Name = ../refined-set-2016/4fz3/4fz3_pocket.pdb
REMARK  126 active torsions:
REMARK  status: ('A' for Active; 'I' for Inactive)
REMARK    1  A    between atoms: _1  and  _3
REMARK    2  A    between atoms: _3  and  _4
REMARK    3  A    between atoms: _3  and  _6
REMARK    4  A    between atoms: _6  and  _7
REMARK    5  A    between atoms: _12  and  _13
REMARK    6  A    between atoms: _15  and  _17
REMARK    7  A    between atoms: _17  and  _18
REMARK    8  A    between atoms: _17  and  _20
REMARK    9  A    between atoms: _20  and  _21
REMARK   10  A    between atoms: _21  and  _22
REMARK   11  A    between atoms: _25  and  _27
REMARK   12  A    between atoms: _27  and  _28
REMARK   13  A    between atoms: _27  and  _30
REMARK   14  A    between atoms: _30  and  _31
REMARK   15  A    between atoms: _34  and  _36
REMARK   16  A    between atoms: _36  and  _37
REMARK   17  A    between atoms: _36  and  _39
REMARK   18  A    between atoms: _39  and  _40
REMARK   19  A    between atoms: _46  and  _48
REMARK   20  A    between atoms: _48  and  _49
REMARK   21  A    between atoms: _48  and  _51
REMARK   22  A    between atoms: _51  and  _52
REMARK   23  A    between atoms: _52  and  _53
REMARK   24  A    between atoms: _56  and  _58
REMARK   25  A    between atoms: _58  and  _59
REMARK   26  A    between atoms: _58  and  _61
REMARK   27  A    between atoms: _61  and  _62
REMARK   28  A    between atoms: _68  and  _70
REMARK   29  A    between atoms: _70  and  _71
REMARK   30  A    between atoms: _70  and  _73
REMARK   31  A    between atoms: _73  and  _74
REMARK   32  A    between atoms: _77  and  _79
REMARK   33  A    between atoms: _79  and  _80
REMARK   34  A    between atoms: _79  and  _82
REMARK   35  A    between atoms: _82  and  _83
REMARK   36  A    between atoms: _83  and  _84
REMARK   37  A    between atoms: _89  and  _91
REMARK   38  A    between atoms: _91  and  _92
REMARK   39  A    between atoms: _91  and  _94
REMARK   40  A    between atoms: _94  and  _95
REMARK   41  A    between atoms: _100  and  _102
REMARK   42  A    between atoms: _102  and  _103
REMARK   43  A    between atoms: _102  and  _105
REMARK   44  A    between atoms: _105  and  _106
REMARK   45  A    between atoms: _109  and  _111
REMARK   46  A    between atoms: _111  and  _112
REMARK   47  A    between atoms: _115  and  _117
REMARK   48  A    between atoms: _117  and  _118
REMARK   49  A    between atoms: _117  and  _120
REMARK   50  A    between atoms: _120  and  _121
REMARK   51  A    between atoms: _126  and  _128
REMARK   52  A    between atoms: _128  and  _129
REMARK   53  A    between atoms: _131  and  _133
REMARK   54  A    between atoms: _133  and  _134
REMARK   55  A    between atoms: _133  and  _136
REMARK   56  A    between atoms: _136  and  _137
REMARK   57  A    between atoms: _143  and  _145
REMARK   58  A    between atoms: _145  and  _146
REMARK   59  A    between atoms: _145  and  _148
REMARK   60  A    between atoms: _148  and  _149
REMARK   61  A    between atoms: _149  and  _150
REMARK   62  A    between atoms: _150  and  _151
REMARK   63  A    between atoms: _151  and  _152
REMARK   64  A    between atoms: _156  and  _158
REMARK   65  A    between atoms: _158  and  _159
REMARK   66  A    between atoms: _158  and  _161
REMARK   67  A    between atoms: _161  and  _162
REMARK   68  A    between atoms: _165  and  _167
REMARK   69  A    between atoms: _167  and  _168
REMARK   70  A    between atoms: _167  and  _170
REMARK   71  A    between atoms: _173  and  _175
REMARK   72  A    between atoms: _175  and  _176
REMARK   73  A    between atoms: _175  and  _178
REMARK   74  A    between atoms: _178  and  _179
REMARK   75  A    between atoms: _185  and  _187
REMARK   76  A    between atoms: _187  and  _188
REMARK   77  A    between atoms: _187  and  _190
REMARK   78  A    between atoms: _190  and  _191
REMARK   79  A    between atoms: _197  and  _199
REMARK   80  A    between atoms: _199  and  _200
REMARK   81  A    between atoms: _202  and  _204
REMARK   82  A    between atoms: _204  and  _205
REMARK   83  A    between atoms: _204  and  _207
REMARK   84  A    between atoms: _207  and  _208
REMARK   85  A    between atoms: _208  and  _209
REMARK   86  A    between atoms: _213  and  _214
REMARK   87  A    between atoms: _219  and  _221
REMARK   88  A    between atoms: _221  and  _222
REMARK   89  A    between atoms: _221  and  _224
REMARK   90  A    between atoms: _224  and  _225
REMARK   91  A    between atoms: _229  and  _230
REMARK   92  A    between atoms: _235  and  _237
REMARK   93  A    between atoms: _237  and  _238
REMARK   94  A    between atoms: _237  and  _240
REMARK   95  A    between atoms: _240  and  _241
REMARK   96  A    between atoms: _247  and  _249
REMARK   97  A    between atoms: _249  and  _250
REMARK   98  A    between atoms: _249  and  _252
REMARK   99  A    between atoms: _252  and  _253
REMARK  100  A    between atoms: _256  and  _258
REMARK  101  A    between atoms: _258  and  _259
REMARK  102  A    between atoms: _258  and  _261
REMARK  103  A    between atoms: _261  and  _262
REMARK  104  A    between atoms: _267  and  _269
REMARK  105  A    between atoms: _269  and  _270
REMARK  106  A    between atoms: _269  and  _272
REMARK  107  A    between atoms: _275  and  _277
REMARK  108  A    between atoms: _277  and  _278
REMARK  109  A    between atoms: _277  and  _280
REMARK  110  A    between atoms: _283  and  _285
REMARK  111  A    between atoms: _285  and  _286
REMARK  112  A    between atoms: _285  and  _288
REMARK  113  A    between atoms: _289  and  _290
REMARK  114  A    between atoms: _294  and  _295
REMARK  115  A    between atoms: _300  and  _302
REMARK  116  A    between atoms: _302  and  _303
REMARK  117  A    between atoms: _302  and  _305
REMARK  118  A    between atoms: _305  and  _306
REMARK  119  A    between atoms: _312  and  _314
REMARK  120  A    between atoms: _314  and  _315
REMARK  121  A    between atoms: _314  and  _317
REMARK  122  A    between atoms: _317  and  _318
REMARK  123  A    between atoms: _320  and  _322
REMARK  124  A    between atoms: _322  and  _323
REMARK  125  A    between atoms: _322  and  _325
REMARK  126  A    between atoms: _325  and  _326
REMARK                            x       y       z     vdW  Elec       q    Type
REMARK                         _______ _______ _______ _____ _____    ______ ____
ROOT
ATOM      1  C   HIS A   1      21.666 -26.953  18.641  0.00  0.00    +0.239 C 
ATOM      2  N   VAL A   2      21.592 -28.158  19.223  0.00  0.00    -0.298 N 
ATOM      3  H   VAL A   2      22.300 -28.875  18.966  0.00  0.00    +0.150 HD
ATOM      4  O   HIS A   1      20.878 -26.011  18.856  0.00  0.00    -0.274 OA
ENDROOT
BRANCH   1   5
ATOM      5  CA  HIS A   1      22.801 -26.762  17.655  0.00  0.00    +0.151 C 
BRANCH   5   6
ATOM      6  N   HIS A   1      23.982 -27.561  18.007  0.00  0.00    -0.238 NA
ATOM      7  H   HIS A   1      24.398 -28.201  17.301  0.00  0.00    +0.142 HD
ENDBRANCH   5   6
BRANCH   5   8
ATOM      8  CB  HIS A   1      22.252 -27.015  16.238  0.00  0.00    +0.074 C 
BRANCH   8   9
ATOM      9  CG  HIS A   1      21.423 -28.243  16.115  0.00  0.00    +0.082 A 
ATOM     10  CD2 HIS A   1      20.076 -28.427  16.204  0.00  0.00    +0.115 A 
ATOM     11  NE2 HIS A   1      19.846 -29.764  16.006  0.00  0.00    -0.221 NA
ATOM     12  CE1 HIS A   1      20.999 -30.383  15.786  0.00  0.00    +0.199 A 
ATOM     13  ND1 HIS A   1      21.969 -29.488  15.842  0.00  0.00    -0.227 NA
ENDBRANCH   8   9
ENDBRANCH   5   8
ENDBRANCH   1   5
BRANCH   2  14
ATOM     14  CA  VAL A   2      20.540 -28.523  20.226  0.00  0.00    +0.137 C 
BRANCH  14  15
ATOM     15  CB  VAL A   2      20.661 -29.998  20.655  0.00  0.00    +0.026 C 
ATOM     16  CG2 VAL A   2      19.807 -30.278  21.920  0.00  0.00    +0.002 C 
ATOM     17  CG1 VAL A   2      20.230 -30.942  19.503  0.00  0.00    +0.002 C 
ENDBRANCH  14  15
BRANCH  14  18
ATOM     18  C   VAL A   2      20.612 -27.638  21.471  0.00  0.00    +0.227 C 
ATOM     19  O   VAL A   2      19.620 -27.361  22.103  0.00  0.00    -0.286 OA
ENDBRANCH  14  18
ENDBRANCH   2  14
TORSDOF 7
REMARK  Name = ../refined-set-2016/4fz3/4fz3_pocket.pdb
REMARK  126 active torsions:
REMARK  status: ('A' for Active; 'I' for Inactive)
REMARK    1  A    between atoms: _1  and  _3
REMARK    2  A    between atoms: _3  and  _4
REMARK    3  A    between atoms: _3  and  _6
REMARK    4  A    between atoms: _6  and  _7
REMARK    5  A    between atoms: _12  and  _13
REMARK    6  A    between atoms: _15  and  _17
REMARK    7  A    between atoms: _17  and  _18
REMARK    8  A    between atoms: _17  and  _20
REMARK    9  A    between atoms: _20  and  _21
REMARK   10  A    between atoms: _21  and  _22
REMARK   11  A    between atoms: _25  and  _27
REMARK   12  A    between atoms: _27  and  _28
REMARK   13  A    between atoms: _27  and  _30
REMARK   14  A    between atoms: _30  and  _31
REMARK   15  A    between atoms: _34  and  _36
REMARK   16  A    between atoms: _36  and  _37
REMARK   17  A    between atoms: _36  and  _39
REMARK   18  A    between atoms: _39  and  _40
REMARK   19  A    between atoms: _46  and  _48
REMARK   20  A    between atoms: _48  and  _49
REMARK   21  A    between atoms: _48  and  _51
REMARK   22  A    between atoms: _51  and  _52
REMARK   23  A    between atoms: _52  and  _53
REMARK   24  A    between atoms: _56  and  _58
REMARK   25  A    between atoms: _58  and  _59
REMARK   26  A    between atoms: _58  and  _61
REMARK   27  A    between atoms: _61  and  _62
REMARK   28  A    between atoms: _68  and  _70
REMARK   29  A    between atoms: _70  and  _71
REMARK   30  A    between atoms: _70  and  _73
REMARK   31  A    between atoms: _73  and  _74
REMARK   32  A    between atoms: _77  and  _79
REMARK   33  A    between atoms: _79  and  _80
REMARK   34  A    between atoms: _79  and  _82
REMARK   35  A    between atoms: _82  and  _83
REMARK   36  A    between atoms: _83  and  _84
REMARK   37  A    between atoms: _89  and  _91
REMARK   38  A    between atoms: _91  and  _92
REMARK   39  A    between atoms: _91  and  _94
REMARK   40  A    between atoms: _94  and  _95
REMARK   41  A    between atoms: _100  and  _102
REMARK   42  A    between atoms: _102  and  _103
REMARK   43  A    between atoms: _102  and  _105
REMARK   44  A    between atoms: _105  and  _106
REMARK   45  A    between atoms: _109  and  _111
REMARK   46  A    between atoms: _111  and  _112
REMARK   47  A    between atoms: _115  and  _117
REMARK   48  A    between atoms: _117  and  _118
REMARK   49  A    between atoms: _117  and  _120
REMARK   50  A    between atoms: _120  and  _121
REMARK   51  A    between atoms: _126  and  _128
REMARK   52  A    between atoms: _128  and  _129
REMARK   53  A    between atoms: _131  and  _133
REMARK   54  A    between atoms: _133  and  _134
REMARK   55  A    between atoms: _133  and  _136
REMARK   56  A    between atoms: _136  and  _137
REMARK   57  A    between atoms: _143  and  _145
REMARK   58  A    between atoms: _145  and  _146
REMARK   59  A    between atoms: _145  and  _148
REMARK   60  A    between atoms: _148  and  _149
REMARK   61  A    between atoms: _149  and  _150
REMARK   62  A    between atoms: _150  and  _151
REMARK   63  A    between atoms: _151  and  _152
REMARK   64  A    between atoms: _156  and  _158
REMARK   65  A    between atoms: _158  and  _159
REMARK   66  A    between atoms: _158  and  _161
REMARK   67  A    between atoms: _161  and  _162
REMARK   68  A    between atoms: _165  and  _167
REMARK   69  A    between atoms: _167  and  _168
REMARK   70  A    between atoms: _167  and  _170
REMARK   71  A    between atoms: _173  and  _175
REMARK   72  A    between atoms: _175  and  _176
REMARK   73  A    between atoms: _175  and  _178
REMARK   74  A    between atoms: _178  and  _179
REMARK   75  A    between atoms: _185  and  _187
REMARK   76  A    between atoms: _187  and  _188
REMARK   77  A    between atoms: _187  and  _190
REMARK   78  A    between atoms: _190  and  _191
REMARK   79  A    between atoms: _197  and  _199
REMARK   80  A    between atoms: _199  and  _200
REMARK   81  A    between atoms: _202  and  _204
REMARK   82  A    between atoms: _204  and  _205
REMARK   83  A    between atoms: _204  and  _207
REMARK   84  A    between atoms: _207  and  _208
REMARK   85  A    between atoms: _208  and  _209
REMARK   86  A    between atoms: _213  and  _214
REMARK   87  A    between atoms: _219  and  _221
REMARK   88  A    between atoms: _221  and  _222
REMARK   89  A    between atoms: _221  and  _224
REMARK   90  A    between atoms: _224  and  _225
REMARK   91  A    between atoms: _229  and  _230
REMARK   92  A    between atoms: _235  and  _237
REMARK   93  A    between atoms: _237  and  _238
REMARK   94  A    between atoms: _237  and  _240
REMARK   95  A    between atoms: _240  and  _241
REMARK   96  A    between atoms: _247  and  _249
REMARK   97  A    between atoms: _249  and  _250
REMARK   98  A    between atoms: _249  and  _252
REMARK   99  A    between atoms: _252  and  _253
REMARK  100  A    between atoms: _256  and  _258
REMARK  101  A    between atoms: _258  and  _259
REMARK  102  A    between atoms: _258  and  _261
REMARK  103  A    between atoms: _261  and  _262
REMARK  104  A    between atoms: _267  and  _269
REMARK  105  A    between atoms: _269  and  _270
REMARK  106  A    between atoms: _269  and  _272
REMARK  107  A    between atoms: _275  and  _277
REMARK  108  A    between atoms: _277  and  _278
REMARK  109  A    between atoms: _277  and  _280
REMARK  110  A    between atoms: _283  and  _285
REMARK  111  A    between atoms: _285  and  _286
REMARK  112  A    between atoms: _285  and  _288
REMARK  113  A    between atoms: _289  and  _290
REMARK  114  A    between atoms: _294  and  _295
REMARK  115  A    between atoms: _300  and  _302
REMARK  116  A    between atoms: _302  and  _303
REMARK  117  A    between atoms: _302  and  _305
REMARK  118  A    between atoms: _305  and  _306
REMARK  119  A    between atoms: _312  and  _314
REMARK  120  A    between atoms: _314  and  _315
REMARK  121  A    between atoms: _314  and  _317
REMARK  122  A    between atoms: _317  and  _318
REMARK  123  A    between atoms: _320  and  _322
REMARK  124  A    between atoms: _322  and  _323
REMARK  125  A    between atoms: _322  and  _325
REMARK  126  A    between atoms: _325  and  _326
REMARK                            x       y       z     vdW  Elec       q    Type
REMARK                         _______ _______ _______ _____ _____    ______ ____
ROOT
ATOM      1  C   GLU A   2      19.457 -28.969   5.920  0.00  0.00    +0.248 C 
ATOM      2  N   PRO A   3      19.745 -29.106   7.240  0.00  0.00    -0.271 N 
ATOM      3  CA  PRO A   3      18.880 -28.697   8.357  0.00  0.00    +0.152 C 
ATOM      4  CB  PRO A   3      19.346 -29.598   9.495  0.00  0.00    +0.031 C 
ATOM      5  CG  PRO A   3      20.799 -29.708   9.249  0.00  0.00    +0.024 C 
ATOM      6  CD  PRO A   3      21.014 -29.660   7.741  0.00  0.00    +0.094 C 
ATOM      7  O   GLU A   2      20.261 -29.247   5.028  0.00  0.00    -0.273 OA
ENDROOT
BRANCH   3   8
ATOM      8  C   PRO A   3      19.077 -27.232   8.739  0.00  0.00    +0.241 C 
ATOM      9  O   PRO A   3      18.607 -26.805   9.793  0.00  0.00    -0.273 OA
ATOM     10  N   PHE A   4      19.743 -26.469   7.882  0.00  0.00    -0.298 N 
ATOM     11  H   PHE A   4      19.994 -26.843   6.945  0.00  0.00    +0.150 HD
BRANCH  10  12
ATOM     12  CA  PHE A   4      20.123 -25.121   8.241  0.00  0.00    +0.141 C 
BRANCH  12  13
ATOM     13  C   PHE A   4      18.946 -24.169   8.238  0.00  0.00    +0.227 C 
ATOM     14  O   PHE A   4      18.923 -23.180   8.992  0.00  0.00    -0.286 OA
ENDBRANCH  12  13
BRANCH  12  15
ATOM     15  CB  PHE A   4      21.203 -24.616   7.295  0.00  0.00    +0.054 C 
BRANCH  15  16
ATOM     16  CG  PHE A   4      22.446 -25.464   7.320  0.00  0.00    -0.020 A 
ATOM     17  CD2 PHE A   4      23.513 -25.118   8.151  0.00  0.00    -0.004 A 
ATOM     18  CE2 PHE A   4      24.633 -25.894   8.194  0.00  0.00    -0.000 A 
ATOM     19  CZ  PHE A   4      24.726 -27.052   7.399  0.00  0.00    -0.000 A 
ATOM     20  CE1 PHE A   4      23.674 -27.406   6.548  0.00  0.00    -0.000 A 
ATOM     21  CD1 PHE A   4      22.540 -26.621   6.523  0.00  0.00    -0.004 A 
ENDBRANCH  15  16
ENDBRANCH  12  15
ENDBRANCH  10  12
ENDBRANCH   3   8
BRANCH   1  22
ATOM     22  CA  GLU A   2      18.076 -28.383   5.550  0.00  0.00    +0.172 C 
BRANCH  22  25
ATOM     23  C   VAL A   1      18.778 -26.536   4.061  0.00  0.00    +0.239 C 
ATOM     24  O   VAL A   1      19.379 -25.908   4.945  0.00  0.00    -0.274 OA
ATOM     25  N   GLU A   2      18.177 -27.716   4.247  0.00  0.00    -0.294 N 
ATOM     26  H   GLU A   2      17.757 -28.188   3.421  0.00  0.00    +0.150 HD
BRANCH  23  27
ATOM     27  CA  VAL A   1      18.687 -25.964   2.650  0.00  0.00    +0.145 C 
BRANCH  27  28
ATOM     28  CB  VAL A   1      19.900 -26.428   1.805  0.00  0.00    +0.025 C 
ATOM     29  CG2 VAL A   1      19.944 -28.000   1.670  0.00  0.00    +0.002 C 
ATOM     30  CG1 VAL A   1      19.930 -25.721   0.435  0.00  0.00    +0.002 C 
ENDBRANCH  27  28
BRANCH  27  31
ATOM     31  N   VAL A   1      18.628 -24.511   2.690  0.00  0.00    -0.238 NA
ATOM     32  H   VAL A   1      19.413 -23.983   3.123  0.00  0.00    +0.142 HD
ENDBRANCH  27  31
ENDBRANCH  23  27
ENDBRANCH  22  25
BRANCH  22  33
ATOM     33  CB  GLU A   2      16.980 -29.488   5.555  0.00  0.00    +0.009 C 
ATOM     34  CG  GLU A   2      15.560 -29.119   6.088  0.00  0.00    +0.084 C 
BRANCH  34  35
ATOM     35  CD  GLU A   2      15.456 -27.734   6.797  0.00  0.00    +0.388 C 
ATOM     36  OE2 GLU A   2      15.921 -27.570   7.954  0.00  0.00    -0.241 OA
ATOM     37  OE1 GLU A   2      14.867 -26.804   6.185  0.00  0.00    -0.241 OA
ENDBRANCH  34  35
ENDBRANCH  22  33
ENDBRANCH   1  22
TORSDOF 12
REMARK  Name = ../refined-set-2016/4fz3/4fz3_pocket.pdb
REMARK  126 active torsions:
REMARK  status: ('A' for Active; 'I' for Inactive)
REMARK    1  A    between atoms: _1  and  _3
REMARK    2  A    between atoms: _3  and  _4
REMARK    3  A    between atoms: _3  and  _6
REMARK    4  A    between atoms: _6  and  _7
REMARK    5  A    between atoms: _12  and  _13
REMARK    6  A    between atoms: _15  and  _17
REMARK    7  A    between atoms: _17  and  _18
REMARK    8  A    between atoms: _17  and  _20
REMARK    9  A    between atoms: _20  and  _21
REMARK   10  A    between atoms: _21  and  _22
REMARK   11  A    between atoms: _25  and  _27
REMARK   12  A    between atoms: _27  and  _28
REMARK   13  A    between atoms: _27  and  _30
REMARK   14  A    between atoms: _30  and  _31
REMARK   15  A    between atoms: _34  and  _36
REMARK   16  A    between atoms: _36  and  _37
REMARK   17  A    between atoms: _36  and  _39
REMARK   18  A    between atoms: _39  and  _40
REMARK   19  A    between atoms: _46  and  _48
REMARK   20  A    between atoms: _48  and  _49
REMARK   21  A    between atoms: _48  and  _51
REMARK   22  A    between atoms: _51  and  _52
REMARK   23  A    between atoms: _52  and  _53
REMARK   24  A    between atoms: _56  and  _58
REMARK   25  A    between atoms: _58  and  _59
REMARK   26  A    between atoms: _58  and  _61
REMARK   27  A    between atoms: _61  and  _62
REMARK   28  A    between atoms: _68  and  _70
REMARK   29  A    between atoms: _70  and  _71
REMARK   30  A    between atoms: _70  and  _73
REMARK   31  A    between atoms: _73  and  _74
REMARK   32  A    between atoms: _77  and  _79
REMARK   33  A    between atoms: _79  and  _80
REMARK   34  A    between atoms: _79  and  _82
REMARK   35  A    between atoms: _82  and  _83
REMARK   36  A    between atoms: _83  and  _84
REMARK   37  A    between atoms: _89  and  _91
REMARK   38  A    between atoms: _91  and  _92
REMARK   39  A    between atoms: _91  and  _94
REMARK   40  A    between atoms: _94  and  _95
REMARK   41  A    between atoms: _100  and  _102
REMARK   42  A    between atoms: _102  and  _103
REMARK   43  A    between atoms: _102  and  _105
REMARK   44  A    between atoms: _105  and  _106
REMARK   45  A    between atoms: _109  and  _111
REMARK   46  A    between atoms: _111  and  _112
REMARK   47  A    between atoms: _115  and  _117
REMARK   48  A    between atoms: _117  and  _118
REMARK   49  A    between atoms: _117  and  _120
REMARK   50  A    between atoms: _120  and  _121
REMARK   51  A    between atoms: _126  and  _128
REMARK   52  A    between atoms: _128  and  _129
REMARK   53  A    between atoms: _131  and  _133
REMARK   54  A    between atoms: _133  and  _134
REMARK   55  A    between atoms: _133  and  _136
REMARK   56  A    between atoms: _136  and  _137
REMARK   57  A    between atoms: _143  and  _145
REMARK   58  A    between atoms: _145  and  _146
REMARK   59  A    between atoms: _145  and  _148
REMARK   60  A    between atoms: _148  and  _149
REMARK   61  A    between atoms: _149  and  _150
REMARK   62  A    between atoms: _150  and  _151
REMARK   63  A    between atoms: _151  and  _152
REMARK   64  A    between atoms: _156  and  _158
REMARK   65  A    between atoms: _158  and  _159
REMARK   66  A    between atoms: _158  and  _161
REMARK   67  A    between atoms: _161  and  _162
REMARK   68  A    between atoms: _165  and  _167
REMARK   69  A    between atoms: _167  and  _168
REMARK   70  A    between atoms: _167  and  _170
REMARK   71  A    between atoms: _173  and  _175
REMARK   72  A    between atoms: _175  and  _176
REMARK   73  A    between atoms: _175  and  _178
REMARK   74  A    between atoms: _178  and  _179
REMARK   75  A    between atoms: _185  and  _187
REMARK   76  A    between atoms: _187  and  _188
REMARK   77  A    between atoms: _187  and  _190
REMARK   78  A    between atoms: _190  and  _191
REMARK   79  A    between atoms: _197  and  _199
REMARK   80  A    between atoms: _199  and  _200
REMARK   81  A    between atoms: _202  and  _204
REMARK   82  A    between atoms: _204  and  _205
REMARK   83  A    between atoms: _204  and  _207
REMARK   84  A    between atoms: _207  and  _208
REMARK   85  A    between atoms: _208  and  _209
REMARK   86  A    between atoms: _213  and  _214
REMARK   87  A    between atoms: _219  and  _221
REMARK   88  A    between atoms: _221  and  _222
REMARK   89  A    between atoms: _221  and  _224
REMARK   90  A    between atoms: _224  and  _225
REMARK   91  A    between atoms: _229  and  _230
REMARK   92  A    between atoms: _235  and  _237
REMARK   93  A    between atoms: _237  and  _238
REMARK   94  A    between atoms: _237  and  _240
REMARK   95  A    between atoms: _240  and  _241
REMARK   96  A    between atoms: _247  and  _249
REMARK   97  A    between atoms: _249  and  _250
REMARK   98  A    between atoms: _249  and  _252
REMARK   99  A    between atoms: _252  and  _253
REMARK  100  A    between atoms: _256  and  _258
REMARK  101  A    between atoms: _258  and  _259
REMARK  102  A    between atoms: _258  and  _261
REMARK  103  A    between atoms: _261  and  _262
REMARK  104  A    between atoms: _267  and  _269
REMARK  105  A    between atoms: _269  and  _270
REMARK  106  A    between atoms: _269  and  _272
REMARK  107  A    between atoms: _275  and  _277
REMARK  108  A    between atoms: _277  and  _278
REMARK  109  A    between atoms: _277  and  _280
REMARK  110  A    between atoms: _283  and  _285
REMARK  111  A    between atoms: _285  and  _286
REMARK  112  A    between atoms: _285  and  _288
REMARK  113  A    between atoms: _289  and  _290
REMARK  114  A    between atoms: _294  and  _295
REMARK  115  A    between atoms: _300  and  _302
REMARK  116  A    between atoms: _302  and  _303
REMARK  117  A    between atoms: _302  and  _305
REMARK  118  A    between atoms: _305  and  _306
REMARK  119  A    between atoms: _312  and  _314
REMARK  120  A    between atoms: _314  and  _315
REMARK  121  A    between atoms: _314  and  _317
REMARK  122  A    between atoms: _317  and  _318
REMARK  123  A    between atoms: _320  and  _322
REMARK  124  A    between atoms: _322  and  _323
REMARK  125  A    between atoms: _322  and  _325
REMARK  126  A    between atoms: _325  and  _326
REMARK                            x       y       z     vdW  Elec       q    Type
REMARK                         _______ _______ _______ _____ _____    ______ ____
ROOT
ATOM      1  C   SER A   1      15.667 -24.245  11.378  0.00  0.00    +0.241 C 
ATOM      2  O   SER A   1      15.007 -23.744  12.319  0.00  0.00    -0.274 OA
ATOM      3  N   LEU A   2      17.006 -24.312  11.381  0.00  0.00    -0.298 N 
ATOM      4  H   LEU A   2      17.504 -24.774  10.593  0.00  0.00    +0.150 HD
ENDROOT
BRANCH   1   5
ATOM      5  CA  SER A   1      14.955 -24.886  10.195  0.00  0.00    +0.174 C 
BRANCH   5   6
ATOM      6  N   SER A   1      15.683 -24.741   8.921  0.00  0.00    -0.236 NA
ATOM      7  H   SER A   1      15.964 -25.603   8.411  0.00  0.00    +0.142 HD
ENDBRANCH   5   6
BRANCH   5   8
ATOM      8  CB  SER A   1      14.762 -26.359  10.552  0.00  0.00    +0.163 C 
BRANCH   8   9
ATOM      9  OG  SER A   1      13.915 -27.020   9.624  0.00  0.00    -0.380 OA
ATOM     10  H   SER A   1      14.315 -26.969   8.720  0.00  0.00    +0.211 HD
ENDBRANCH   8   9
ENDBRANCH   5   8
ENDBRANCH   1   5
BRANCH   3  11
ATOM     11  CA  LEU A   2      17.785 -23.725  12.512  0.00  0.00    +0.137 C 
BRANCH  11  12
ATOM     12  C   LEU A   2      17.438 -22.238  12.677  0.00  0.00    +0.227 C 
ATOM     13  O   LEU A   2      17.442 -21.717  13.769  0.00  0.00    -0.286 OA
ENDBRANCH  11  12
BRANCH  11  14
ATOM     14  CB  LEU A   2      19.307 -23.930  12.346  0.00  0.00    +0.028 C 
BRANCH  14  15
ATOM     15  CG  LEU A   2      20.015 -25.297  12.338  0.00  0.00    +0.002 C 
ATOM     16  CD2 LEU A   2      19.733 -26.152  13.560  0.00  0.00    +0.000 C 
ATOM     17  CD1 LEU A   2      21.497 -25.097  12.223  0.00  0.00    +0.000 C 
ENDBRANCH  14  15
ENDBRANCH  11  14
ENDBRANCH   3  11
TORSDOF 8
REMARK  Name = ../refined-set-2016/4fz3/4fz3_pocket.pdb
REMARK  126 active torsions:
REMARK  status: ('A' for Active; 'I' for Inactive)
REMARK    1  A    between atoms: _1  and  _3
REMARK    2  A    between atoms: _3  and  _4
REMARK    3  A    between atoms: _3  and  _6
REMARK    4  A    between atoms: _6  and  _7
REMARK    5  A    between atoms: _12  and  _13
REMARK    6  A    between atoms: _15  and  _17
REMARK    7  A    between atoms: _17  and  _18
REMARK    8  A    between atoms: _17  and  _20
REMARK    9  A    between atoms: _20  and  _21
REMARK   10  A    between atoms: _21  and  _22
REMARK   11  A    between atoms: _25  and  _27
REMARK   12  A    between atoms: _27  and  _28
REMARK   13  A    between atoms: _27  and  _30
REMARK   14  A    between atoms: _30  and  _31
REMARK   15  A    between atoms: _34  and  _36
REMARK   16  A    between atoms: _36  and  _37
REMARK   17  A    between atoms: _36  and  _39
REMARK   18  A    between atoms: _39  and  _40
REMARK   19  A    between atoms: _46  and  _48
REMARK   20  A    between atoms: _48  and  _49
REMARK   21  A    between atoms: _48  and  _51
REMARK   22  A    between atoms: _51  and  _52
REMARK   23  A    between atoms: _52  and  _53
REMARK   24  A    between atoms: _56  and  _58
REMARK   25  A    between atoms: _58  and  _59
REMARK   26  A    between atoms: _58  and  _61
REMARK   27  A    between atoms: _61  and  _62
REMARK   28  A    between atoms: _68  and  _70
REMARK   29  A    between atoms: _70  and  _71
REMARK   30  A    between atoms: _70  and  _73
REMARK   31  A    between atoms: _73  and  _74
REMARK   32  A    between atoms: _77  and  _79
REMARK   33  A    between atoms: _79  and  _80
REMARK   34  A    between atoms: _79  and  _82
REMARK   35  A    between atoms: _82  and  _83
REMARK   36  A    between atoms: _83  and  _84
REMARK   37  A    between atoms: _89  and  _91
REMARK   38  A    between atoms: _91  and  _92
REMARK   39  A    between atoms: _91  and  _94
REMARK   40  A    between atoms: _94  and  _95
REMARK   41  A    between atoms: _100  and  _102
REMARK   42  A    between atoms: _102  and  _103
REMARK   43  A    between atoms: _102  and  _105
REMARK   44  A    between atoms: _105  and  _106
REMARK   45  A    between atoms: _109  and  _111
REMARK   46  A    between atoms: _111  and  _112
REMARK   47  A    between atoms: _115  and  _117
REMARK   48  A    between atoms: _117  and  _118
REMARK   49  A    between atoms: _117  and  _120
REMARK   50  A    between atoms: _120  and  _121
REMARK   51  A    between atoms: _126  and  _128
REMARK   52  A    between atoms: _128  and  _129
REMARK   53  A    between atoms: _131  and  _133
REMARK   54  A    between atoms: _133  and  _134
REMARK   55  A    between atoms: _133  and  _136
REMARK   56  A    between atoms: _136  and  _137
REMARK   57  A    between atoms: _143  and  _145
REMARK   58  A    between atoms: _145  and  _146
REMARK   59  A    between atoms: _145  and  _148
REMARK   60  A    between atoms: _148  and  _149
REMARK   61  A    between atoms: _149  and  _150
REMARK   62  A    between atoms: _150  and  _151
REMARK   63  A    between atoms: _151  and  _152
REMARK   64  A    between atoms: _156  and  _158
REMARK   65  A    between atoms: _158  and  _159
REMARK   66  A    between atoms: _158  and  _161
REMARK   67  A    between atoms: _161  and  _162
REMARK   68  A    between atoms: _165  and  _167
REMARK   69  A    between atoms: _167  and  _168
REMARK   70  A    between atoms: _167  and  _170
REMARK   71  A    between atoms: _173  and  _175
REMARK   72  A    between atoms: _175  and  _176
REMARK   73  A    between atoms: _175  and  _178
REMARK   74  A    between atoms: _178  and  _179
REMARK   75  A    between atoms: _185  and  _187
REMARK   76  A    between atoms: _187  and  _188
REMARK   77  A    between atoms: _187  and  _190
REMARK   78  A    between atoms: _190  and  _191
REMARK   79  A    between atoms: _197  and  _199
REMARK   80  A    between atoms: _199  and  _200
REMARK   81  A    between atoms: _202  and  _204
REMARK   82  A    between atoms: _204  and  _205
REMARK   83  A    between atoms: _204  and  _207
REMARK   84  A    between atoms: _207  and  _208
REMARK   85  A    between atoms: _208  and  _209
REMARK   86  A    between atoms: _213  and  _214
REMARK   87  A    between atoms: _219  and  _221
REMARK   88  A    between atoms: _221  and  _222
REMARK   89  A    between atoms: _221  and  _224
REMARK   90  A    between atoms: _224  and  _225
REMARK   91  A    between atoms: _229  and  _230
REMARK   92  A    between atoms: _235  and  _237
REMARK   93  A    between atoms: _237  and  _238
REMARK   94  A    between atoms: _237  and  _240
REMARK   95  A    between atoms: _240  and  _241
REMARK   96  A    between atoms: _247  and  _249
REMARK   97  A    between atoms: _249  and  _250
REMARK   98  A    between atoms: _249  and  _252
REMARK   99  A    between atoms: _252  and  _253
REMARK  100  A    between atoms: _256  and  _258
REMARK  101  A    between atoms: _258  and  _259
REMARK  102  A    between atoms: _258  and  _261
REMARK  103  A    between atoms: _261  and  _262
REMARK  104  A    between atoms: _267  and  _269
REMARK  105  A    between atoms: _269  and  _270
REMARK  106  A    between atoms: _269  and  _272
REMARK  107  A    between atoms: _275  and  _277
REMARK  108  A    between atoms: _277  and  _278
REMARK  109  A    between atoms: _277  and  _280
REMARK  110  A    between atoms: _283  and  _285
REMARK  111  A    between atoms: _285  and  _286
REMARK  112  A    between atoms: _285  and  _288
REMARK  113  A    between atoms: _289  and  _290
REMARK  114  A    between atoms: _294  and  _295
REMARK  115  A    between atoms: _300  and  _302
REMARK  116  A    between atoms: _302  and  _303
REMARK  117  A    between atoms: _302  and  _305
REMARK  118  A    between atoms: _305  and  _306
REMARK  119  A    between atoms: _312  and  _314
REMARK  120  A    between atoms: _314  and  _315
REMARK  121  A    between atoms: _314  and  _317
REMARK  122  A    between atoms: _317  and  _318
REMARK  123  A    between atoms: _320  and  _322
REMARK  124  A    between atoms: _322  and  _323
REMARK  125  A    between atoms: _322  and  _325
REMARK  126  A    between atoms: _325  and  _326
REMARK                            x       y       z     vdW  Elec       q    Type
REMARK                         _______ _______ _______ _____ _____    ______ ____
ROOT
ATOM      1  O   HOH     1      25.299 -34.669  13.657  0.00  0.00    +0.000 OA
ENDROOT
TORSDOF 0
REMARK  Name = ../refined-set-2016/4fz3/4fz3_pocket.pdb
REMARK  126 active torsions:
REMARK  status: ('A' for Active; 'I' for Inactive)
REMARK    1  A    between atoms: _1  and  _3
REMARK    2  A    between atoms: _3  and  _4
REMARK    3  A    between atoms: _3  and  _6
REMARK    4  A    between atoms: _6  and  _7
REMARK    5  A    between atoms: _12  and  _13
REMARK    6  A    between atoms: _15  and  _17
REMARK    7  A    between atoms: _17  and  _18
REMARK    8  A    between atoms: _17  and  _20
REMARK    9  A    between atoms: _20  and  _21
REMARK   10  A    between atoms: _21  and  _22
REMARK   11  A    between atoms: _25  and  _27
REMARK   12  A    between atoms: _27  and  _28
REMARK   13  A    between atoms: _27  and  _30
REMARK   14  A    between atoms: _30  and  _31
REMARK   15  A    between atoms: _34  and  _36
REMARK   16  A    between atoms: _36  and  _37
REMARK   17  A    between atoms: _36  and  _39
REMARK   18  A    between atoms: _39  and  _40
REMARK   19  A    between atoms: _46  and  _48
REMARK   20  A    between atoms: _48  and  _49
REMARK   21  A    between atoms: _48  and  _51
REMARK   22  A    between atoms: _51  and  _52
REMARK   23  A    between atoms: _52  and  _53
REMARK   24  A    between atoms: _56  and  _58
REMARK   25  A    between atoms: _58  and  _59
REMARK   26  A    between atoms: _58  and  _61
REMARK   27  A    between atoms: _61  and  _62
REMARK   28  A    between atoms: _68  and  _70
REMARK   29  A    between atoms: _70  and  _71
REMARK   30  A    between atoms: _70  and  _73
REMARK   31  A    between atoms: _73  and  _74
REMARK   32  A    between atoms: _77  and  _79
REMARK   33  A    between atoms: _79  and  _80
REMARK   34  A    between atoms: _79  and  _82
REMARK   35  A    between atoms: _82  and  _83
REMARK   36  A    between atoms: _83  and  _84
REMARK   37  A    between atoms: _89  and  _91
REMARK   38  A    between atoms: _91  and  _92
REMARK   39  A    between atoms: _91  and  _94
REMARK   40  A    between atoms: _94  and  _95
REMARK   41  A    between atoms: _100  and  _102
REMARK   42  A    between atoms: _102  and  _103
REMARK   43  A    between atoms: _102  and  _105
REMARK   44  A    between atoms: _105  and  _106
REMARK   45  A    between atoms: _109  and  _111
REMARK   46  A    between atoms: _111  and  _112
REMARK   47  A    between atoms: _115  and  _117
REMARK   48  A    between atoms: _117  and  _118
REMARK   49  A    between atoms: _117  and  _120
REMARK   50  A    between atoms: _120  and  _121
REMARK   51  A    between atoms: _126  and  _128
REMARK   52  A    between atoms: _128  and  _129
REMARK   53  A    between atoms: _131  and  _133
REMARK   54  A    between atoms: _133  and  _134
REMARK   55  A    between atoms: _133  and  _136
REMARK   56  A    between atoms: _136  and  _137
REMARK   57  A    between atoms: _143  and  _145
REMARK   58  A    between atoms: _145  and  _146
REMARK   59  A    between atoms: _145  and  _148
REMARK   60  A    between atoms: _148  and  _149
REMARK   61  A    between atoms: _149  and  _150
REMARK   62  A    between atoms: _150  and  _151
REMARK   63  A    between atoms: _151  and  _152
REMARK   64  A    between atoms: _156  and  _158
REMARK   65  A    between atoms: _158  and  _159
REMARK   66  A    between atoms: _158  and  _161
REMARK   67  A    between atoms: _161  and  _162
REMARK   68  A    between atoms: _165  and  _167
REMARK   69  A    between atoms: _167  and  _168
REMARK   70  A    between atoms: _167  and  _170
REMARK   71  A    between atoms: _173  and  _175
REMARK   72  A    between atoms: _175  and  _176
REMARK   73  A    between atoms: _175  and  _178
REMARK   74  A    between atoms: _178  and  _179
REMARK   75  A    between atoms: _185  and  _187
REMARK   76  A    between atoms: _187  and  _188
REMARK   77  A    between atoms: _187  and  _190
REMARK   78  A    between atoms: _190  and  _191
REMARK   79  A    between atoms: _197  and  _199
REMARK   80  A    between atoms: _199  and  _200
REMARK   81  A    between atoms: _202  and  _204
REMARK   82  A    between atoms: _204  and  _205
REMARK   83  A    between atoms: _204  and  _207
REMARK   84  A    between atoms: _207  and  _208
REMARK   85  A    between atoms: _208  and  _209
REMARK   86  A    between atoms: _213  and  _214
REMARK   87  A    between atoms: _219  and  _221
REMARK   88  A    between atoms: _221  and  _222
REMARK   89  A    between atoms: _221  and  _224
REMARK   90  A    between atoms: _224  and  _225
REMARK   91  A    between atoms: _229  and  _230
REMARK   92  A    between atoms: _235  and  _237
REMARK   93  A    between atoms: _237  and  _238
REMARK   94  A    between atoms: _237  and  _240
REMARK   95  A    between atoms: _240  and  _241
REMARK   96  A    between atoms: _247  and  _249
REMARK   97  A    between atoms: _249  and  _250
REMARK   98  A    between atoms: _249  and  _252
REMARK   99  A    between atoms: _252  and  _253
REMARK  100  A    between atoms: _256  and  _258
REMARK  101  A    between atoms: _258  and  _259
REMARK  102  A    between atoms: _258  and  _261
REMARK  103  A    between atoms: _261  and  _262
REMARK  104  A    between atoms: _267  and  _269
REMARK  105  A    between atoms: _269  and  _270
REMARK  106  A    between atoms: _269  and  _272
REMARK  107  A    between atoms: _275  and  _277
REMARK  108  A    between atoms: _277  and  _278
REMARK  109  A    between atoms: _277  and  _280
REMARK  110  A    between atoms: _283  and  _285
REMARK  111  A    between atoms: _285  and  _286
REMARK  112  A    between atoms: _285  and  _288
REMARK  113  A    between atoms: _289  and  _290
REMARK  114  A    between atoms: _294  and  _295
REMARK  115  A    between atoms: _300  and  _302
REMARK  116  A    between atoms: _302  and  _303
REMARK  117  A    between atoms: _302  and  _305
REMARK  118  A    between atoms: _305  and  _306
REMARK  119  A    between atoms: _312  and  _314
REMARK  120  A    between atoms: _314  and  _315
REMARK  121  A    between atoms: _314  and  _317
REMARK  122  A    between atoms: _317  and  _318
REMARK  123  A    between atoms: _320  and  _322
REMARK  124  A    between atoms: _322  and  _323
REMARK  125  A    between atoms: _322  and  _325
REMARK  126  A    between atoms: _325  and  _326
REMARK                            x       y       z     vdW  Elec       q    Type
REMARK                         _______ _______ _______ _____ _____    ______ ____
ROOT
ATOM      1  O   HOH     1      32.537 -26.804   7.204  0.00  0.00    +0.000 OA
ENDROOT
TORSDOF 0
REMARK  Name = ../refined-set-2016/4fz3/4fz3_pocket.pdb
REMARK  126 active torsions:
REMARK  status: ('A' for Active; 'I' for Inactive)
REMARK    1  A    between atoms: _1  and  _3
REMARK    2  A    between atoms: _3  and  _4
REMARK    3  A    between atoms: _3  and  _6
REMARK    4  A    between atoms: _6  and  _7
REMARK    5  A    between atoms: _12  and  _13
REMARK    6  A    between atoms: _15  and  _17
REMARK    7  A    between atoms: _17  and  _18
REMARK    8  A    between atoms: _17  and  _20
REMARK    9  A    between atoms: _20  and  _21
REMARK   10  A    between atoms: _21  and  _22
REMARK   11  A    between atoms: _25  and  _27
REMARK   12  A    between atoms: _27  and  _28
REMARK   13  A    between atoms: _27  and  _30
REMARK   14  A    between atoms: _30  and  _31
REMARK   15  A    between atoms: _34  and  _36
REMARK   16  A    between atoms: _36  and  _37
REMARK   17  A    between atoms: _36  and  _39
REMARK   18  A    between atoms: _39  and  _40
REMARK   19  A    between atoms: _46  and  _48
REMARK   20  A    between atoms: _48  and  _49
REMARK   21  A    between atoms: _48  and  _51
REMARK   22  A    between atoms: _51  and  _52
REMARK   23  A    between atoms: _52  and  _53
REMARK   24  A    between atoms: _56  and  _58
REMARK   25  A    between atoms: _58  and  _59
REMARK   26  A    between atoms: _58  and  _61
REMARK   27  A    between atoms: _61  and  _62
REMARK   28  A    between atoms: _68  and  _70
REMARK   29  A    between atoms: _70  and  _71
REMARK   30  A    between atoms: _70  and  _73
REMARK   31  A    between atoms: _73  and  _74
REMARK   32  A    between atoms: _77  and  _79
REMARK   33  A    between atoms: _79  and  _80
REMARK   34  A    between atoms: _79  and  _82
REMARK   35  A    between atoms: _82  and  _83
REMARK   36  A    between atoms: _83  and  _84
REMARK   37  A    between atoms: _89  and  _91
REMARK   38  A    between atoms: _91  and  _92
REMARK   39  A    between atoms: _91  and  _94
REMARK   40  A    between atoms: _94  and  _95
REMARK   41  A    between atoms: _100  and  _102
REMARK   42  A    between atoms: _102  and  _103
REMARK   43  A    between atoms: _102  and  _105
REMARK   44  A    between atoms: _105  and  _106
REMARK   45  A    between atoms: _109  and  _111
REMARK   46  A    between atoms: _111  and  _112
REMARK   47  A    between atoms: _115  and  _117
REMARK   48  A    between atoms: _117  and  _118
REMARK   49  A    between atoms: _117  and  _120
REMARK   50  A    between atoms: _120  and  _121
REMARK   51  A    between atoms: _126  and  _128
REMARK   52  A    between atoms: _128  and  _129
REMARK   53  A    between atoms: _131  and  _133
REMARK   54  A    between atoms: _133  and  _134
REMARK   55  A    between atoms: _133  and  _136
REMARK   56  A    between atoms: _136  and  _137
REMARK   57  A    between atoms: _143  and  _145
REMARK   58  A    between atoms: _145  and  _146
REMARK   59  A    between atoms: _145  and  _148
REMARK   60  A    between atoms: _148  and  _149
REMARK   61  A    between atoms: _149  and  _150
REMARK   62  A    between atoms: _150  and  _151
REMARK   63  A    between atoms: _151  and  _152
REMARK   64  A    between atoms: _156  and  _158
REMARK   65  A    between atoms: _158  and  _159
REMARK   66  A    between atoms: _158  and  _161
REMARK   67  A    between atoms: _161  and  _162
REMARK   68  A    between atoms: _165  and  _167
REMARK   69  A    between atoms: _167  and  _168
REMARK   70  A    between atoms: _167  and  _170
REMARK   71  A    between atoms: _173  and  _175
REMARK   72  A    between atoms: _175  and  _176
REMARK   73  A    between atoms: _175  and  _178
REMARK   74  A    between atoms: _178  and  _179
REMARK   75  A    between atoms: _185  and  _187
REMARK   76  A    between atoms: _187  and  _188
REMARK   77  A    between atoms: _187  and  _190
REMARK   78  A    between atoms: _190  and  _191
REMARK   79  A    between atoms: _197  and  _199
REMARK   80  A    between atoms: _199  and  _200
REMARK   81  A    between atoms: _202  and  _204
REMARK   82  A    between atoms: _204  and  _205
REMARK   83  A    between atoms: _204  and  _207
REMARK   84  A    between atoms: _207  and  _208
REMARK   85  A    between atoms: _208  and  _209
REMARK   86  A    between atoms: _213  and  _214
REMARK   87  A    between atoms: _219  and  _221
REMARK   88  A    between atoms: _221  and  _222
REMARK   89  A    between atoms: _221  and  _224
REMARK   90  A    between atoms: _224  and  _225
REMARK   91  A    between atoms: _229  and  _230
REMARK   92  A    between atoms: _235  and  _237
REMARK   93  A    between atoms: _237  and  _238
REMARK   94  A    between atoms: _237  and  _240
REMARK   95  A    between atoms: _240  and  _241
REMARK   96  A    between atoms: _247  and  _249
REMARK   97  A    between atoms: _249  and  _250
REMARK   98  A    between atoms: _249  and  _252
REMARK   99  A    between atoms: _252  and  _253
REMARK  100  A    between atoms: _256  and  _258
REMARK  101  A    between atoms: _258  and  _259
REMARK  102  A    between atoms: _258  and  _261
REMARK  103  A    between atoms: _261  and  _262
REMARK  104  A    between atoms: _267  and  _269
REMARK  105  A    between atoms: _269  and  _270
REMARK  106  A    between atoms: _269  and  _272
REMARK  107  A    between atoms: _275  and  _277
REMARK  108  A    between atoms: _277  and  _278
REMARK  109  A    between atoms: _277  and  _280
REMARK  110  A    between atoms: _283  and  _285
REMARK  111  A    between atoms: _285  and  _286
REMARK  112  A    between atoms: _285  and  _288
REMARK  113  A    between atoms: _289  and  _290
REMARK  114  A    between atoms: _294  and  _295
REMARK  115  A    between atoms: _300  and  _302
REMARK  116  A    between atoms: _302  and  _303
REMARK  117  A    between atoms: _302  and  _305
REMARK  118  A    between atoms: _305  and  _306
REMARK  119  A    between atoms: _312  and  _314
REMARK  120  A    between atoms: _314  and  _315
REMARK  121  A    between atoms: _314  and  _317
REMARK  122  A    between atoms: _317  and  _318
REMARK  123  A    between atoms: _320  and  _322
REMARK  124  A    between atoms: _322  and  _323
REMARK  125  A    between atoms: _322  and  _325
REMARK  126  A    between atoms: _325  and  _326
REMARK                            x       y       z     vdW  Elec       q    Type
REMARK                         _______ _______ _______ _____ _____    ______ ____
ROOT
ATOM      1  O   HOH     1      27.999 -39.413  -1.631  0.00  0.00    +0.000 OA
ENDROOT
TORSDOF 0
REMARK  Name = ../refined-set-2016/4fz3/4fz3_pocket.pdb
REMARK  126 active torsions:
REMARK  status: ('A' for Active; 'I' for Inactive)
REMARK    1  A    between atoms: _1  and  _3
REMARK    2  A    between atoms: _3  and  _4
REMARK    3  A    between atoms: _3  and  _6
REMARK    4  A    between atoms: _6  and  _7
REMARK    5  A    between atoms: _12  and  _13
REMARK    6  A    between atoms: _15  and  _17
REMARK    7  A    between atoms: _17  and  _18
REMARK    8  A    between atoms: _17  and  _20
REMARK    9  A    between atoms: _20  and  _21
REMARK   10  A    between atoms: _21  and  _22
REMARK   11  A    between atoms: _25  and  _27
REMARK   12  A    between atoms: _27  and  _28
REMARK   13  A    between atoms: _27  and  _30
REMARK   14  A    between atoms: _30  and  _31
REMARK   15  A    between atoms: _34  and  _36
REMARK   16  A    between atoms: _36  and  _37
REMARK   17  A    between atoms: _36  and  _39
REMARK   18  A    between atoms: _39  and  _40
REMARK   19  A    between atoms: _46  and  _48
REMARK   20  A    between atoms: _48  and  _49
REMARK   21  A    between atoms: _48  and  _51
REMARK   22  A    between atoms: _51  and  _52
REMARK   23  A    between atoms: _52  and  _53
REMARK   24  A    between atoms: _56  and  _58
REMARK   25  A    between atoms: _58  and  _59
REMARK   26  A    between atoms: _58  and  _61
REMARK   27  A    between atoms: _61  and  _62
REMARK   28  A    between atoms: _68  and  _70
REMARK   29  A    between atoms: _70  and  _71
REMARK   30  A    between atoms: _70  and  _73
REMARK   31  A    between atoms: _73  and  _74
REMARK   32  A    between atoms: _77  and  _79
REMARK   33  A    between atoms: _79  and  _80
REMARK   34  A    between atoms: _79  and  _82
REMARK   35  A    between atoms: _82  and  _83
REMARK   36  A    between atoms: _83  and  _84
REMARK   37  A    between atoms: _89  and  _91
REMARK   38  A    between atoms: _91  and  _92
REMARK   39  A    between atoms: _91  and  _94
REMARK   40  A    between atoms: _94  and  _95
REMARK   41  A    between atoms: _100  and  _102
REMARK   42  A    between atoms: _102  and  _103
REMARK   43  A    between atoms: _102  and  _105
REMARK   44  A    between atoms: _105  and  _106
REMARK   45  A    between atoms: _109  and  _111
REMARK   46  A    between atoms: _111  and  _112
REMARK   47  A    between atoms: _115  and  _117
REMARK   48  A    between atoms: _117  and  _118
REMARK   49  A    between atoms: _117  and  _120
REMARK   50  A    between atoms: _120  and  _121
REMARK   51  A    between atoms: _126  and  _128
REMARK   52  A    between atoms: _128  and  _129
REMARK   53  A    between atoms: _131  and  _133
REMARK   54  A    between atoms: _133  and  _134
REMARK   55  A    between atoms: _133  and  _136
REMARK   56  A    between atoms: _136  and  _137
REMARK   57  A    between atoms: _143  and  _145
REMARK   58  A    between atoms: _145  and  _146
REMARK   59  A    between atoms: _145  and  _148
REMARK   60  A    between atoms: _148  and  _149
REMARK   61  A    between atoms: _149  and  _150
REMARK   62  A    between atoms: _150  and  _151
REMARK   63  A    between atoms: _151  and  _152
REMARK   64  A    between atoms: _156  and  _158
REMARK   65  A    between atoms: _158  and  _159
REMARK   66  A    between atoms: _158  and  _161
REMARK   67  A    between atoms: _161  and  _162
REMARK   68  A    between atoms: _165  and  _167
REMARK   69  A    between atoms: _167  and  _168
REMARK   70  A    between atoms: _167  and  _170
REMARK   71  A    between atoms: _173  and  _175
REMARK   72  A    between atoms: _175  and  _176
REMARK   73  A    between atoms: _175  and  _178
REMARK   74  A    between atoms: _178  and  _179
REMARK   75  A    between atoms: _185  and  _187
REMARK   76  A    between atoms: _187  and  _188
REMARK   77  A    between atoms: _187  and  _190
REMARK   78  A    between atoms: _190  and  _191
REMARK   79  A    between atoms: _197  and  _199
REMARK   80  A    between atoms: _199  and  _200
REMARK   81  A    between atoms: _202  and  _204
REMARK   82  A    between atoms: _204  and  _205
REMARK   83  A    between atoms: _204  and  _207
REMARK   84  A    between atoms: _207  and  _208
REMARK   85  A    between atoms: _208  and  _209
REMARK   86  A    between atoms: _213  and  _214
REMARK   87  A    between atoms: _219  and  _221
REMARK   88  A    between atoms: _221  and  _222
REMARK   89  A    between atoms: _221  and  _224
REMARK   90  A    between atoms: _224  and  _225
REMARK   91  A    between atoms: _229  and  _230
REMARK   92  A    between atoms: _235  and  _237
REMARK   93  A    between atoms: _237  and  _238
REMARK   94  A    between atoms: _237  and  _240
REMARK   95  A    between atoms: _240  and  _241
REMARK   96  A    between atoms: _247  and  _249
REMARK   97  A    between atoms: _249  and  _250
REMARK   98  A    between atoms: _249  and  _252
REMARK   99  A    between atoms: _252  and  _253
REMARK  100  A    between atoms: _256  and  _258
REMARK  101  A    between atoms: _258  and  _259
REMARK  102  A    between atoms: _258  and  _261
REMARK  103  A    between atoms: _261  and  _262
REMARK  104  A    between atoms: _267  and  _269
REMARK  105  A    between atoms: _269  and  _270
REMARK  106  A    between atoms: _269  and  _272
REMARK  107  A    between atoms: _275  and  _277
REMARK  108  A    between atoms: _277  and  _278
REMARK  109  A    between atoms: _277  and  _280
REMARK  110  A    between atoms: _283  and  _285
REMARK  111  A    between atoms: _285  and  _286
REMARK  112  A    between atoms: _285  and  _288
REMARK  113  A    between atoms: _289  and  _290
REMARK  114  A    between atoms: _294  and  _295
REMARK  115  A    between atoms: _300  and  _302
REMARK  116  A    between atoms: _302  and  _303
REMARK  117  A    between atoms: _302  and  _305
REMARK  118  A    between atoms: _305  and  _306
REMARK  119  A    between atoms: _312  and  _314
REMARK  120  A    between atoms: _314  and  _315
REMARK  121  A    between atoms: _314  and  _317
REMARK  122  A    between atoms: _317  and  _318
REMARK  123  A    between atoms: _320  and  _322
REMARK  124  A    between atoms: _322  and  _323
REMARK  125  A    between atoms: _322  and  _325
REMARK  126  A    between atoms: _325  and  _326
REMARK                            x       y       z     vdW  Elec       q    Type
REMARK                         _______ _______ _______ _____ _____    ______ ____
ROOT
ATOM      1  O   HOH     1      34.247 -22.705   1.055  0.00  0.00    +0.000 OA
ENDROOT
TORSDOF 0
REMARK  Name = ../refined-set-2016/4fz3/4fz3_pocket.pdb
REMARK  126 active torsions:
REMARK  status: ('A' for Active; 'I' for Inactive)
REMARK    1  A    between atoms: _1  and  _3
REMARK    2  A    between atoms: _3  and  _4
REMARK    3  A    between atoms: _3  and  _6
REMARK    4  A    between atoms: _6  and  _7
REMARK    5  A    between atoms: _12  and  _13
REMARK    6  A    between atoms: _15  and  _17
REMARK    7  A    between atoms: _17  and  _18
REMARK    8  A    between atoms: _17  and  _20
REMARK    9  A    between atoms: _20  and  _21
REMARK   10  A    between atoms: _21  and  _22
REMARK   11  A    between atoms: _25  and  _27
REMARK   12  A    between atoms: _27  and  _28
REMARK   13  A    between atoms: _27  and  _30
REMARK   14  A    between atoms: _30  and  _31
REMARK   15  A    between atoms: _34  and  _36
REMARK   16  A    between atoms: _36  and  _37
REMARK   17  A    between atoms: _36  and  _39
REMARK   18  A    between atoms: _39  and  _40
REMARK   19  A    between atoms: _46  and  _48
REMARK   20  A    between atoms: _48  and  _49
REMARK   21  A    between atoms: _48  and  _51
REMARK   22  A    between atoms: _51  and  _52
REMARK   23  A    between atoms: _52  and  _53
REMARK   24  A    between atoms: _56  and  _58
REMARK   25  A    between atoms: _58  and  _59
REMARK   26  A    between atoms: _58  and  _61
REMARK   27  A    between atoms: _61  and  _62
REMARK   28  A    between atoms: _68  and  _70
REMARK   29  A    between atoms: _70  and  _71
REMARK   30  A    between atoms: _70  and  _73
REMARK   31  A    between atoms: _73  and  _74
REMARK   32  A    between atoms: _77  and  _79
REMARK   33  A    between atoms: _79  and  _80
REMARK   34  A    between atoms: _79  and  _82
REMARK   35  A    between atoms: _82  and  _83
REMARK   36  A    between atoms: _83  and  _84
REMARK   37  A    between atoms: _89  and  _91
REMARK   38  A    between atoms: _91  and  _92
REMARK   39  A    between atoms: _91  and  _94
REMARK   40  A    between atoms: _94  and  _95
REMARK   41  A    between atoms: _100  and  _102
REMARK   42  A    between atoms: _102  and  _103
REMARK   43  A    between atoms: _102  and  _105
REMARK   44  A    between atoms: _105  and  _106
REMARK   45  A    between atoms: _109  and  _111
REMARK   46  A    between atoms: _111  and  _112
REMARK   47  A    between atoms: _115  and  _117
REMARK   48  A    between atoms: _117  and  _118
REMARK   49  A    between atoms: _117  and  _120
REMARK   50  A    between atoms: _120  and  _121
REMARK   51  A    between atoms: _126  and  _128
REMARK   52  A    between atoms: _128  and  _129
REMARK   53  A    between atoms: _131  and  _133
REMARK   54  A    between atoms: _133  and  _134
REMARK   55  A    between atoms: _133  and  _136
REMARK   56  A    between atoms: _136  and  _137
REMARK   57  A    between atoms: _143  and  _145
REMARK   58  A    between atoms: _145  and  _146
REMARK   59  A    between atoms: _145  and  _148
REMARK   60  A    between atoms: _148  and  _149
REMARK   61  A    between atoms: _149  and  _150
REMARK   62  A    between atoms: _150  and  _151
REMARK   63  A    between atoms: _151  and  _152
REMARK   64  A    between atoms: _156  and  _158
REMARK   65  A    between atoms: _158  and  _159
REMARK   66  A    between atoms: _158  and  _161
REMARK   67  A    between atoms: _161  and  _162
REMARK   68  A    between atoms: _165  and  _167
REMARK   69  A    between atoms: _167  and  _168
REMARK   70  A    between atoms: _167  and  _170
REMARK   71  A    between atoms: _173  and  _175
REMARK   72  A    between atoms: _175  and  _176
REMARK   73  A    between atoms: _175  and  _178
REMARK   74  A    between atoms: _178  and  _179
REMARK   75  A    between atoms: _185  and  _187
REMARK   76  A    between atoms: _187  and  _188
REMARK   77  A    between atoms: _187  and  _190
REMARK   78  A    between atoms: _190  and  _191
REMARK   79  A    between atoms: _197  and  _199
REMARK   80  A    between atoms: _199  and  _200
REMARK   81  A    between atoms: _202  and  _204
REMARK   82  A    between atoms: _204  and  _205
REMARK   83  A    between atoms: _204  and  _207
REMARK   84  A    between atoms: _207  and  _208
REMARK   85  A    between atoms: _208  and  _209
REMARK   86  A    between atoms: _213  and  _214
REMARK   87  A    between atoms: _219  and  _221
REMARK   88  A    between atoms: _221  and  _222
REMARK   89  A    between atoms: _221  and  _224
REMARK   90  A    between atoms: _224  and  _225
REMARK   91  A    between atoms: _229  and  _230
REMARK   92  A    between atoms: _235  and  _237
REMARK   93  A    between atoms: _237  and  _238
REMARK   94  A    between atoms: _237  and  _240
REMARK   95  A    between atoms: _240  and  _241
REMARK   96  A    between atoms: _247  and  _249
REMARK   97  A    between atoms: _249  and  _250
REMARK   98  A    between atoms: _249  and  _252
REMARK   99  A    between atoms: _252  and  _253
REMARK  100  A    between atoms: _256  and  _258
REMARK  101  A    between atoms: _258  and  _259
REMARK  102  A    between atoms: _258  and  _261
REMARK  103  A    between atoms: _261  and  _262
REMARK  104  A    between atoms: _267  and  _269
REMARK  105  A    between atoms: _269  and  _270
REMARK  106  A    between atoms: _269  and  _272
REMARK  107  A    between atoms: _275  and  _277
REMARK  108  A    between atoms: _277  and  _278
REMARK  109  A    between atoms: _277  and  _280
REMARK  110  A    between atoms: _283  and  _285
REMARK  111  A    between atoms: _285  and  _286
REMARK  112  A    between atoms: _285  and  _288
REMARK  113  A    between atoms: _289  and  _290
REMARK  114  A    between atoms: _294  and  _295
REMARK  115  A    between atoms: _300  and  _302
REMARK  116  A    between atoms: _302  and  _303
REMARK  117  A    between atoms: _302  and  _305
REMARK  118  A    between atoms: _305  and  _306
REMARK  119  A    between atoms: _312  and  _314
REMARK  120  A    between atoms: _314  and  _315
REMARK  121  A    between atoms: _314  and  _317
REMARK  122  A    between atoms: _317  and  _318
REMARK  123  A    between atoms: _320  and  _322
REMARK  124  A    between atoms: _322  and  _323
REMARK  125  A    between atoms: _322  and  _325
REMARK  126  A    between atoms: _325  and  _326
REMARK                            x       y       z     vdW  Elec       q    Type
REMARK                         _______ _______ _______ _____ _____    ______ ____
ROOT
ATOM      1  O   HOH     1      24.243 -28.969   3.389  0.00  0.00    +0.000 OA
ENDROOT
TORSDOF 0
REMARK  Name = ../refined-set-2016/4fz3/4fz3_pocket.pdb
REMARK  126 active torsions:
REMARK  status: ('A' for Active; 'I' for Inactive)
REMARK    1  A    between atoms: _1  and  _3
REMARK    2  A    between atoms: _3  and  _4
REMARK    3  A    between atoms: _3  and  _6
REMARK    4  A    between atoms: _6  and  _7
REMARK    5  A    between atoms: _12  and  _13
REMARK    6  A    between atoms: _15  and  _17
REMARK    7  A    between atoms: _17  and  _18
REMARK    8  A    between atoms: _17  and  _20
REMARK    9  A    between atoms: _20  and  _21
REMARK   10  A    between atoms: _21  and  _22
REMARK   11  A    between atoms: _25  and  _27
REMARK   12  A    between atoms: _27  and  _28
REMARK   13  A    between atoms: _27  and  _30
REMARK   14  A    between atoms: _30  and  _31
REMARK   15  A    between atoms: _34  and  _36
REMARK   16  A    between atoms: _36  and  _37
REMARK   17  A    between atoms: _36  and  _39
REMARK   18  A    between atoms: _39  and  _40
REMARK   19  A    between atoms: _46  and  _48
REMARK   20  A    between atoms: _48  and  _49
REMARK   21  A    between atoms: _48  and  _51
REMARK   22  A    between atoms: _51  and  _52
REMARK   23  A    between atoms: _52  and  _53
REMARK   24  A    between atoms: _56  and  _58
REMARK   25  A    between atoms: _58  and  _59
REMARK   26  A    between atoms: _58  and  _61
REMARK   27  A    between atoms: _61  and  _62
REMARK   28  A    between atoms: _68  and  _70
REMARK   29  A    between atoms: _70  and  _71
REMARK   30  A    between atoms: _70  and  _73
REMARK   31  A    between atoms: _73  and  _74
REMARK   32  A    between atoms: _77  and  _79
REMARK   33  A    between atoms: _79  and  _80
REMARK   34  A    between atoms: _79  and  _82
REMARK   35  A    between atoms: _82  and  _83
REMARK   36  A    between atoms: _83  and  _84
REMARK   37  A    between atoms: _89  and  _91
REMARK   38  A    between atoms: _91  and  _92
REMARK   39  A    between atoms: _91  and  _94
REMARK   40  A    between atoms: _94  and  _95
REMARK   41  A    between atoms: _100  and  _102
REMARK   42  A    between atoms: _102  and  _103
REMARK   43  A    between atoms: _102  and  _105
REMARK   44  A    between atoms: _105  and  _106
REMARK   45  A    between atoms: _109  and  _111
REMARK   46  A    between atoms: _111  and  _112
REMARK   47  A    between atoms: _115  and  _117
REMARK   48  A    between atoms: _117  and  _118
REMARK   49  A    between atoms: _117  and  _120
REMARK   50  A    between atoms: _120  and  _121
REMARK   51  A    between atoms: _126  and  _128
REMARK   52  A    between atoms: _128  and  _129
REMARK   53  A    between atoms: _131  and  _133
REMARK   54  A    between atoms: _133  and  _134
REMARK   55  A    between atoms: _133  and  _136
REMARK   56  A    between atoms: _136  and  _137
REMARK   57  A    between atoms: _143  and  _145
REMARK   58  A    between atoms: _145  and  _146
REMARK   59  A    between atoms: _145  and  _148
REMARK   60  A    between atoms: _148  and  _149
REMARK   61  A    between atoms: _149  and  _150
REMARK   62  A    between atoms: _150  and  _151
REMARK   63  A    between atoms: _151  and  _152
REMARK   64  A    between atoms: _156  and  _158
REMARK   65  A    between atoms: _158  and  _159
REMARK   66  A    between atoms: _158  and  _161
REMARK   67  A    between atoms: _161  and  _162
REMARK   68  A    between atoms: _165  and  _167
REMARK   69  A    between atoms: _167  and  _168
REMARK   70  A    between atoms: _167  and  _170
REMARK   71  A    between atoms: _173  and  _175
REMARK   72  A    between atoms: _175  and  _176
REMARK   73  A    between atoms: _175  and  _178
REMARK   74  A    between atoms: _178  and  _179
REMARK   75  A    between atoms: _185  and  _187
REMARK   76  A    between atoms: _187  and  _188
REMARK   77  A    between atoms: _187  and  _190
REMARK   78  A    between atoms: _190  and  _191
REMARK   79  A    between atoms: _197  and  _199
REMARK   80  A    between atoms: _199  and  _200
REMARK   81  A    between atoms: _202  and  _204
REMARK   82  A    between atoms: _204  and  _205
REMARK   83  A    between atoms: _204  and  _207
REMARK   84  A    between atoms: _207  and  _208
REMARK   85  A    between atoms: _208  and  _209
REMARK   86  A    between atoms: _213  and  _214
REMARK   87  A    between atoms: _219  and  _221
REMARK   88  A    between atoms: _221  and  _222
REMARK   89  A    between atoms: _221  and  _224
REMARK   90  A    between atoms: _224  and  _225
REMARK   91  A    between atoms: _229  and  _230
REMARK   92  A    between atoms: _235  and  _237
REMARK   93  A    between atoms: _237  and  _238
REMARK   94  A    between atoms: _237  and  _240
REMARK   95  A    between atoms: _240  and  _241
REMARK   96  A    between atoms: _247  and  _249
REMARK   97  A    between atoms: _249  and  _250
REMARK   98  A    between atoms: _249  and  _252
REMARK   99  A    between atoms: _252  and  _253
REMARK  100  A    between atoms: _256  and  _258
REMARK  101  A    between atoms: _258  and  _259
REMARK  102  A    between atoms: _258  and  _261
REMARK  103  A    between atoms: _261  and  _262
REMARK  104  A    between atoms: _267  and  _269
REMARK  105  A    between atoms: _269  and  _270
REMARK  106  A    between atoms: _269  and  _272
REMARK  107  A    between atoms: _275  and  _277
REMARK  108  A    between atoms: _277  and  _278
REMARK  109  A    between atoms: _277  and  _280
REMARK  110  A    between atoms: _283  and  _285
REMARK  111  A    between atoms: _285  and  _286
REMARK  112  A    between atoms: _285  and  _288
REMARK  113  A    between atoms: _289  and  _290
REMARK  114  A    between atoms: _294  and  _295
REMARK  115  A    between atoms: _300  and  _302
REMARK  116  A    between atoms: _302  and  _303
REMARK  117  A    between atoms: _302  and  _305
REMARK  118  A    between atoms: _305  and  _306
REMARK  119  A    between atoms: _312  and  _314
REMARK  120  A    between atoms: _314  and  _315
REMARK  121  A    between atoms: _314  and  _317
REMARK  122  A    between atoms: _317  and  _318
REMARK  123  A    between atoms: _320  and  _322
REMARK  124  A    between atoms: _322  and  _323
REMARK  125  A    between atoms: _322  and  _325
REMARK  126  A    between atoms: _325  and  _326
REMARK                            x       y       z     vdW  Elec       q    Type
REMARK                         _______ _______ _______ _____ _____    ______ ____
ROOT
ATOM      1  O   HOH     1      21.946 -30.813   4.350  0.00  0.00    +0.000 OA
ENDROOT
TORSDOF 0
REMARK  Name = ../refined-set-2016/4fz3/4fz3_pocket.pdb
REMARK  126 active torsions:
REMARK  status: ('A' for Active; 'I' for Inactive)
REMARK    1  A    between atoms: _1  and  _3
REMARK    2  A    between atoms: _3  and  _4
REMARK    3  A    between atoms: _3  and  _6
REMARK    4  A    between atoms: _6  and  _7
REMARK    5  A    between atoms: _12  and  _13
REMARK    6  A    between atoms: _15  and  _17
REMARK    7  A    between atoms: _17  and  _18
REMARK    8  A    between atoms: _17  and  _20
REMARK    9  A    between atoms: _20  and  _21
REMARK   10  A    between atoms: _21  and  _22
REMARK   11  A    between atoms: _25  and  _27
REMARK   12  A    between atoms: _27  and  _28
REMARK   13  A    between atoms: _27  and  _30
REMARK   14  A    between atoms: _30  and  _31
REMARK   15  A    between atoms: _34  and  _36
REMARK   16  A    between atoms: _36  and  _37
REMARK   17  A    between atoms: _36  and  _39
REMARK   18  A    between atoms: _39  and  _40
REMARK   19  A    between atoms: _46  and  _48
REMARK   20  A    between atoms: _48  and  _49
REMARK   21  A    between atoms: _48  and  _51
REMARK   22  A    between atoms: _51  and  _52
REMARK   23  A    between atoms: _52  and  _53
REMARK   24  A    between atoms: _56  and  _58
REMARK   25  A    between atoms: _58  and  _59
REMARK   26  A    between atoms: _58  and  _61
REMARK   27  A    between atoms: _61  and  _62
REMARK   28  A    between atoms: _68  and  _70
REMARK   29  A    between atoms: _70  and  _71
REMARK   30  A    between atoms: _70  and  _73
REMARK   31  A    between atoms: _73  and  _74
REMARK   32  A    between atoms: _77  and  _79
REMARK   33  A    between atoms: _79  and  _80
REMARK   34  A    between atoms: _79  and  _82
REMARK   35  A    between atoms: _82  and  _83
REMARK   36  A    between atoms: _83  and  _84
REMARK   37  A    between atoms: _89  and  _91
REMARK   38  A    between atoms: _91  and  _92
REMARK   39  A    between atoms: _91  and  _94
REMARK   40  A    between atoms: _94  and  _95
REMARK   41  A    between atoms: _100  and  _102
REMARK   42  A    between atoms: _102  and  _103
REMARK   43  A    between atoms: _102  and  _105
REMARK   44  A    between atoms: _105  and  _106
REMARK   45  A    between atoms: _109  and  _111
REMARK   46  A    between atoms: _111  and  _112
REMARK   47  A    between atoms: _115  and  _117
REMARK   48  A    between atoms: _117  and  _118
REMARK   49  A    between atoms: _117  and  _120
REMARK   50  A    between atoms: _120  and  _121
REMARK   51  A    between atoms: _126  and  _128
REMARK   52  A    between atoms: _128  and  _129
REMARK   53  A    between atoms: _131  and  _133
REMARK   54  A    between atoms: _133  and  _134
REMARK   55  A    between atoms: _133  and  _136
REMARK   56  A    between atoms: _136  and  _137
REMARK   57  A    between atoms: _143  and  _145
REMARK   58  A    between atoms: _145  and  _146
REMARK   59  A    between atoms: _145  and  _148
REMARK   60  A    between atoms: _148  and  _149
REMARK   61  A    between atoms: _149  and  _150
REMARK   62  A    between atoms: _150  and  _151
REMARK   63  A    between atoms: _151  and  _152
REMARK   64  A    between atoms: _156  and  _158
REMARK   65  A    between atoms: _158  and  _159
REMARK   66  A    between atoms: _158  and  _161
REMARK   67  A    between atoms: _161  and  _162
REMARK   68  A    between atoms: _165  and  _167
REMARK   69  A    between atoms: _167  and  _168
REMARK   70  A    between atoms: _167  and  _170
REMARK   71  A    between atoms: _173  and  _175
REMARK   72  A    between atoms: _175  and  _176
REMARK   73  A    between atoms: _175  and  _178
REMARK   74  A    between atoms: _178  and  _179
REMARK   75  A    between atoms: _185  and  _187
REMARK   76  A    between atoms: _187  and  _188
REMARK   77  A    between atoms: _187  and  _190
REMARK   78  A    between atoms: _190  and  _191
REMARK   79  A    between atoms: _197  and  _199
REMARK   80  A    between atoms: _199  and  _200
REMARK   81  A    between atoms: _202  and  _204
REMARK   82  A    between atoms: _204  and  _205
REMARK   83  A    between atoms: _204  and  _207
REMARK   84  A    between atoms: _207  and  _208
REMARK   85  A    between atoms: _208  and  _209
REMARK   86  A    between atoms: _213  and  _214
REMARK   87  A    between atoms: _219  and  _221
REMARK   88  A    between atoms: _221  and  _222
REMARK   89  A    between atoms: _221  and  _224
REMARK   90  A    between atoms: _224  and  _225
REMARK   91  A    between atoms: _229  and  _230
REMARK   92  A    between atoms: _235  and  _237
REMARK   93  A    between atoms: _237  and  _238
REMARK   94  A    between atoms: _237  and  _240
REMARK   95  A    between atoms: _240  and  _241
REMARK   96  A    between atoms: _247  and  _249
REMARK   97  A    between atoms: _249  and  _250
REMARK   98  A    between atoms: _249  and  _252
REMARK   99  A    between atoms: _252  and  _253
REMARK  100  A    between atoms: _256  and  _258
REMARK  101  A    between atoms: _258  and  _259
REMARK  102  A    between atoms: _258  and  _261
REMARK  103  A    between atoms: _261  and  _262
REMARK  104  A    between atoms: _267  and  _269
REMARK  105  A    between atoms: _269  and  _270
REMARK  106  A    between atoms: _269  and  _272
REMARK  107  A    between atoms: _275  and  _277
REMARK  108  A    between atoms: _277  and  _278
REMARK  109  A    between atoms: _277  and  _280
REMARK  110  A    between atoms: _283  and  _285
REMARK  111  A    between atoms: _285  and  _286
REMARK  112  A    between atoms: _285  and  _288
REMARK  113  A    between atoms: _289  and  _290
REMARK  114  A    between atoms: _294  and  _295
REMARK  115  A    between atoms: _300  and  _302
REMARK  116  A    between atoms: _302  and  _303
REMARK  117  A    between atoms: _302  and  _305
REMARK  118  A    between atoms: _305  and  _306
REMARK  119  A    between atoms: _312  and  _314
REMARK  120  A    between atoms: _314  and  _315
REMARK  121  A    between atoms: _314  and  _317
REMARK  122  A    between atoms: _317  and  _318
REMARK  123  A    between atoms: _320  and  _322
REMARK  124  A    between atoms: _322  and  _323
REMARK  125  A    between atoms: _322  and  _325
REMARK  126  A    between atoms: _325  and  _326
REMARK                            x       y       z     vdW  Elec       q    Type
REMARK                         _______ _______ _______ _____ _____    ______ ____
ROOT
ATOM      1  O   HOH     1      23.001 -26.447   2.386  0.00  0.00    +0.000 OA
ENDROOT
TORSDOF 0
REMARK  Name = ../refined-set-2016/4fz3/4fz3_pocket.pdb
REMARK  126 active torsions:
REMARK  status: ('A' for Active; 'I' for Inactive)
REMARK    1  A    between atoms: _1  and  _3
REMARK    2  A    between atoms: _3  and  _4
REMARK    3  A    between atoms: _3  and  _6
REMARK    4  A    between atoms: _6  and  _7
REMARK    5  A    between atoms: _12  and  _13
REMARK    6  A    between atoms: _15  and  _17
REMARK    7  A    between atoms: _17  and  _18
REMARK    8  A    between atoms: _17  and  _20
REMARK    9  A    between atoms: _20  and  _21
REMARK   10  A    between atoms: _21  and  _22
REMARK   11  A    between atoms: _25  and  _27
REMARK   12  A    between atoms: _27  and  _28
REMARK   13  A    between atoms: _27  and  _30
REMARK   14  A    between atoms: _30  and  _31
REMARK   15  A    between atoms: _34  and  _36
REMARK   16  A    between atoms: _36  and  _37
REMARK   17  A    between atoms: _36  and  _39
REMARK   18  A    between atoms: _39  and  _40
REMARK   19  A    between atoms: _46  and  _48
REMARK   20  A    between atoms: _48  and  _49
REMARK   21  A    between atoms: _48  and  _51
REMARK   22  A    between atoms: _51  and  _52
REMARK   23  A    between atoms: _52  and  _53
REMARK   24  A    between atoms: _56  and  _58
REMARK   25  A    between atoms: _58  and  _59
REMARK   26  A    between atoms: _58  and  _61
REMARK   27  A    between atoms: _61  and  _62
REMARK   28  A    between atoms: _68  and  _70
REMARK   29  A    between atoms: _70  and  _71
REMARK   30  A    between atoms: _70  and  _73
REMARK   31  A    between atoms: _73  and  _74
REMARK   32  A    between atoms: _77  and  _79
REMARK   33  A    between atoms: _79  and  _80
REMARK   34  A    between atoms: _79  and  _82
REMARK   35  A    between atoms: _82  and  _83
REMARK   36  A    between atoms: _83  and  _84
REMARK   37  A    between atoms: _89  and  _91
REMARK   38  A    between atoms: _91  and  _92
REMARK   39  A    between atoms: _91  and  _94
REMARK   40  A    between atoms: _94  and  _95
REMARK   41  A    between atoms: _100  and  _102
REMARK   42  A    between atoms: _102  and  _103
REMARK   43  A    between atoms: _102  and  _105
REMARK   44  A    between atoms: _105  and  _106
REMARK   45  A    between atoms: _109  and  _111
REMARK   46  A    between atoms: _111  and  _112
REMARK   47  A    between atoms: _115  and  _117
REMARK   48  A    between atoms: _117  and  _118
REMARK   49  A    between atoms: _117  and  _120
REMARK   50  A    between atoms: _120  and  _121
REMARK   51  A    between atoms: _126  and  _128
REMARK   52  A    between atoms: _128  and  _129
REMARK   53  A    between atoms: _131  and  _133
REMARK   54  A    between atoms: _133  and  _134
REMARK   55  A    between atoms: _133  and  _136
REMARK   56  A    between atoms: _136  and  _137
REMARK   57  A    between atoms: _143  and  _145
REMARK   58  A    between atoms: _145  and  _146
REMARK   59  A    between atoms: _145  and  _148
REMARK   60  A    between atoms: _148  and  _149
REMARK   61  A    between atoms: _149  and  _150
REMARK   62  A    between atoms: _150  and  _151
REMARK   63  A    between atoms: _151  and  _152
REMARK   64  A    between atoms: _156  and  _158
REMARK   65  A    between atoms: _158  and  _159
REMARK   66  A    between atoms: _158  and  _161
REMARK   67  A    between atoms: _161  and  _162
REMARK   68  A    between atoms: _165  and  _167
REMARK   69  A    between atoms: _167  and  _168
REMARK   70  A    between atoms: _167  and  _170
REMARK   71  A    between atoms: _173  and  _175
REMARK   72  A    between atoms: _175  and  _176
REMARK   73  A    between atoms: _175  and  _178
REMARK   74  A    between atoms: _178  and  _179
REMARK   75  A    between atoms: _185  and  _187
REMARK   76  A    between atoms: _187  and  _188
REMARK   77  A    between atoms: _187  and  _190
REMARK   78  A    between atoms: _190  and  _191
REMARK   79  A    between atoms: _197  and  _199
REMARK   80  A    between atoms: _199  and  _200
REMARK   81  A    between atoms: _202  and  _204
REMARK   82  A    between atoms: _204  and  _205
REMARK   83  A    between atoms: _204  and  _207
REMARK   84  A    between atoms: _207  and  _208
REMARK   85  A    between atoms: _208  and  _209
REMARK   86  A    between atoms: _213  and  _214
REMARK   87  A    between atoms: _219  and  _221
REMARK   88  A    between atoms: _221  and  _222
REMARK   89  A    between atoms: _221  and  _224
REMARK   90  A    between atoms: _224  and  _225
REMARK   91  A    between atoms: _229  and  _230
REMARK   92  A    between atoms: _235  and  _237
REMARK   93  A    between atoms: _237  and  _238
REMARK   94  A    between atoms: _237  and  _240
REMARK   95  A    between atoms: _240  and  _241
REMARK   96  A    between atoms: _247  and  _249
REMARK   97  A    between atoms: _249  and  _250
REMARK   98  A    between atoms: _249  and  _252
REMARK   99  A    between atoms: _252  and  _253
REMARK  100  A    between atoms: _256  and  _258
REMARK  101  A    between atoms: _258  and  _259
REMARK  102  A    between atoms: _258  and  _261
REMARK  103  A    between atoms: _261  and  _262
REMARK  104  A    between atoms: _267  and  _269
REMARK  105  A    between atoms: _269  and  _270
REMARK  106  A    between atoms: _269  and  _272
REMARK  107  A    between atoms: _275  and  _277
REMARK  108  A    between atoms: _277  and  _278
REMARK  109  A    between atoms: _277  and  _280
REMARK  110  A    between atoms: _283  and  _285
REMARK  111  A    between atoms: _285  and  _286
REMARK  112  A    between atoms: _285  and  _288
REMARK  113  A    between atoms: _289  and  _290
REMARK  114  A    between atoms: _294  and  _295
REMARK  115  A    between atoms: _300  and  _302
REMARK  116  A    between atoms: _302  and  _303
REMARK  117  A    between atoms: _302  and  _305
REMARK  118  A    between atoms: _305  and  _306
REMARK  119  A    between atoms: _312  and  _314
REMARK  120  A    between atoms: _314  and  _315
REMARK  121  A    between atoms: _314  and  _317
REMARK  122  A    between atoms: _317  and  _318
REMARK  123  A    between atoms: _320  and  _322
REMARK  124  A    between atoms: _322  and  _323
REMARK  125  A    between atoms: _322  and  _325
REMARK  126  A    between atoms: _325  and  _326
REMARK                            x       y       z     vdW  Elec       q    Type
REMARK                         _______ _______ _______ _____ _____    ______ ____
ROOT
ATOM      1  O   HOH     1      27.011 -26.524   6.094  0.00  0.00    +0.000 OA
ENDROOT
TORSDOF 0
REMARK  Name = ../refined-set-2016/4fz3/4fz3_pocket.pdb
REMARK  126 active torsions:
REMARK  status: ('A' for Active; 'I' for Inactive)
REMARK    1  A    between atoms: _1  and  _3
REMARK    2  A    between atoms: _3  and  _4
REMARK    3  A    between atoms: _3  and  _6
REMARK    4  A    between atoms: _6  and  _7
REMARK    5  A    between atoms: _12  and  _13
REMARK    6  A    between atoms: _15  and  _17
REMARK    7  A    between atoms: _17  and  _18
REMARK    8  A    between atoms: _17  and  _20
REMARK    9  A    between atoms: _20  and  _21
REMARK   10  A    between atoms: _21  and  _22
REMARK   11  A    between atoms: _25  and  _27
REMARK   12  A    between atoms: _27  and  _28
REMARK   13  A    between atoms: _27  and  _30
REMARK   14  A    between atoms: _30  and  _31
REMARK   15  A    between atoms: _34  and  _36
REMARK   16  A    between atoms: _36  and  _37
REMARK   17  A    between atoms: _36  and  _39
REMARK   18  A    between atoms: _39  and  _40
REMARK   19  A    between atoms: _46  and  _48
REMARK   20  A    between atoms: _48  and  _49
REMARK   21  A    between atoms: _48  and  _51
REMARK   22  A    between atoms: _51  and  _52
REMARK   23  A    between atoms: _52  and  _53
REMARK   24  A    between atoms: _56  and  _58
REMARK   25  A    between atoms: _58  and  _59
REMARK   26  A    between atoms: _58  and  _61
REMARK   27  A    between atoms: _61  and  _62
REMARK   28  A    between atoms: _68  and  _70
REMARK   29  A    between atoms: _70  and  _71
REMARK   30  A    between atoms: _70  and  _73
REMARK   31  A    between atoms: _73  and  _74
REMARK   32  A    between atoms: _77  and  _79
REMARK   33  A    between atoms: _79  and  _80
REMARK   34  A    between atoms: _79  and  _82
REMARK   35  A    between atoms: _82  and  _83
REMARK   36  A    between atoms: _83  and  _84
REMARK   37  A    between atoms: _89  and  _91
REMARK   38  A    between atoms: _91  and  _92
REMARK   39  A    between atoms: _91  and  _94
REMARK   40  A    between atoms: _94  and  _95
REMARK   41  A    between atoms: _100  and  _102
REMARK   42  A    between atoms: _102  and  _103
REMARK   43  A    between atoms: _102  and  _105
REMARK   44  A    between atoms: _105  and  _106
REMARK   45  A    between atoms: _109  and  _111
REMARK   46  A    between atoms: _111  and  _112
REMARK   47  A    between atoms: _115  and  _117
REMARK   48  A    between atoms: _117  and  _118
REMARK   49  A    between atoms: _117  and  _120
REMARK   50  A    between atoms: _120  and  _121
REMARK   51  A    between atoms: _126  and  _128
REMARK   52  A    between atoms: _128  and  _129
REMARK   53  A    between atoms: _131  and  _133
REMARK   54  A    between atoms: _133  and  _134
REMARK   55  A    between atoms: _133  and  _136
REMARK   56  A    between atoms: _136  and  _137
REMARK   57  A    between atoms: _143  and  _145
REMARK   58  A    between atoms: _145  and  _146
REMARK   59  A    between atoms: _145  and  _148
REMARK   60  A    between atoms: _148  and  _149
REMARK   61  A    between atoms: _149  and  _150
REMARK   62  A    between atoms: _150  and  _151
REMARK   63  A    between atoms: _151  and  _152
REMARK   64  A    between atoms: _156  and  _158
REMARK   65  A    between atoms: _158  and  _159
REMARK   66  A    between atoms: _158  and  _161
REMARK   67  A    between atoms: _161  and  _162
REMARK   68  A    between atoms: _165  and  _167
REMARK   69  A    between atoms: _167  and  _168
REMARK   70  A    between atoms: _167  and  _170
REMARK   71  A    between atoms: _173  and  _175
REMARK   72  A    between atoms: _175  and  _176
REMARK   73  A    between atoms: _175  and  _178
REMARK   74  A    between atoms: _178  and  _179
REMARK   75  A    between atoms: _185  and  _187
REMARK   76  A    between atoms: _187  and  _188
REMARK   77  A    between atoms: _187  and  _190
REMARK   78  A    between atoms: _190  and  _191
REMARK   79  A    between atoms: _197  and  _199
REMARK   80  A    between atoms: _199  and  _200
REMARK   81  A    between atoms: _202  and  _204
REMARK   82  A    between atoms: _204  and  _205
REMARK   83  A    between atoms: _204  and  _207
REMARK   84  A    between atoms: _207  and  _208
REMARK   85  A    between atoms: _208  and  _209
REMARK   86  A    between atoms: _213  and  _214
REMARK   87  A    between atoms: _219  and  _221
REMARK   88  A    between atoms: _221  and  _222
REMARK   89  A    between atoms: _221  and  _224
REMARK   90  A    between atoms: _224  and  _225
REMARK   91  A    between atoms: _229  and  _230
REMARK   92  A    between atoms: _235  and  _237
REMARK   93  A    between atoms: _237  and  _238
REMARK   94  A    between atoms: _237  and  _240
REMARK   95  A    between atoms: _240  and  _241
REMARK   96  A    between atoms: _247  and  _249
REMARK   97  A    between atoms: _249  and  _250
REMARK   98  A    between atoms: _249  and  _252
REMARK   99  A    between atoms: _252  and  _253
REMARK  100  A    between atoms: _256  and  _258
REMARK  101  A    between atoms: _258  and  _259
REMARK  102  A    between atoms: _258  and  _261
REMARK  103  A    between atoms: _261  and  _262
REMARK  104  A    between atoms: _267  and  _269
REMARK  105  A    between atoms: _269  and  _270
REMARK  106  A    between atoms: _269  and  _272
REMARK  107  A    between atoms: _275  and  _277
REMARK  108  A    between atoms: _277  and  _278
REMARK  109  A    between atoms: _277  and  _280
REMARK  110  A    between atoms: _283  and  _285
REMARK  111  A    between atoms: _285  and  _286
REMARK  112  A    between atoms: _285  and  _288
REMARK  113  A    between atoms: _289  and  _290
REMARK  114  A    between atoms: _294  and  _295
REMARK  115  A    between atoms: _300  and  _302
REMARK  116  A    between atoms: _302  and  _303
REMARK  117  A    between atoms: _302  and  _305
REMARK  118  A    between atoms: _305  and  _306
REMARK  119  A    between atoms: _312  and  _314
REMARK  120  A    between atoms: _314  and  _315
REMARK  121  A    between atoms: _314  and  _317
REMARK  122  A    between atoms: _317  and  _318
REMARK  123  A    between atoms: _320  and  _322
REMARK  124  A    between atoms: _322  and  _323
REMARK  125  A    between atoms: _322  and  _325
REMARK  126  A    between atoms: _325  and  _326
REMARK                            x       y       z     vdW  Elec       q    Type
REMARK                         _______ _______ _______ _____ _____    ______ ____
ROOT
ATOM      1  O   HOH     1      29.316 -37.758  12.427  0.00  0.00    +0.000 OA
ENDROOT
TORSDOF 0
REMARK  Name = ../refined-set-2016/4fz3/4fz3_pocket.pdb
REMARK  126 active torsions:
REMARK  status: ('A' for Active; 'I' for Inactive)
REMARK    1  A    between atoms: _1  and  _3
REMARK    2  A    between atoms: _3  and  _4
REMARK    3  A    between atoms: _3  and  _6
REMARK    4  A    between atoms: _6  and  _7
REMARK    5  A    between atoms: _12  and  _13
REMARK    6  A    between atoms: _15  and  _17
REMARK    7  A    between atoms: _17  and  _18
REMARK    8  A    between atoms: _17  and  _20
REMARK    9  A    between atoms: _20  and  _21
REMARK   10  A    between atoms: _21  and  _22
REMARK   11  A    between atoms: _25  and  _27
REMARK   12  A    between atoms: _27  and  _28
REMARK   13  A    between atoms: _27  and  _30
REMARK   14  A    between atoms: _30  and  _31
REMARK   15  A    between atoms: _34  and  _36
REMARK   16  A    between atoms: _36  and  _37
REMARK   17  A    between atoms: _36  and  _39
REMARK   18  A    between atoms: _39  and  _40
REMARK   19  A    between atoms: _46  and  _48
REMARK   20  A    between atoms: _48  and  _49
REMARK   21  A    between atoms: _48  and  _51
REMARK   22  A    between atoms: _51  and  _52
REMARK   23  A    between atoms: _52  and  _53
REMARK   24  A    between atoms: _56  and  _58
REMARK   25  A    between atoms: _58  and  _59
REMARK   26  A    between atoms: _58  and  _61
REMARK   27  A    between atoms: _61  and  _62
REMARK   28  A    between atoms: _68  and  _70
REMARK   29  A    between atoms: _70  and  _71
REMARK   30  A    between atoms: _70  and  _73
REMARK   31  A    between atoms: _73  and  _74
REMARK   32  A    between atoms: _77  and  _79
REMARK   33  A    between atoms: _79  and  _80
REMARK   34  A    between atoms: _79  and  _82
REMARK   35  A    between atoms: _82  and  _83
REMARK   36  A    between atoms: _83  and  _84
REMARK   37  A    between atoms: _89  and  _91
REMARK   38  A    between atoms: _91  and  _92
REMARK   39  A    between atoms: _91  and  _94
REMARK   40  A    between atoms: _94  and  _95
REMARK   41  A    between atoms: _100  and  _102
REMARK   42  A    between atoms: _102  and  _103
REMARK   43  A    between atoms: _102  and  _105
REMARK   44  A    between atoms: _105  and  _106
REMARK   45  A    between atoms: _109  and  _111
REMARK   46  A    between atoms: _111  and  _112
REMARK   47  A    between atoms: _115  and  _117
REMARK   48  A    between atoms: _117  and  _118
REMARK   49  A    between atoms: _117  and  _120
REMARK   50  A    between atoms: _120  and  _121
REMARK   51  A    between atoms: _126  and  _128
REMARK   52  A    between atoms: _128  and  _129
REMARK   53  A    between atoms: _131  and  _133
REMARK   54  A    between atoms: _133  and  _134
REMARK   55  A    between atoms: _133  and  _136
REMARK   56  A    between atoms: _136  and  _137
REMARK   57  A    between atoms: _143  and  _145
REMARK   58  A    between atoms: _145  and  _146
REMARK   59  A    between atoms: _145  and  _148
REMARK   60  A    between atoms: _148  and  _149
REMARK   61  A    between atoms: _149  and  _150
REMARK   62  A    between atoms: _150  and  _151
REMARK   63  A    between atoms: _151  and  _152
REMARK   64  A    between atoms: _156  and  _158
REMARK   65  A    between atoms: _158  and  _159
REMARK   66  A    between atoms: _158  and  _161
REMARK   67  A    between atoms: _161  and  _162
REMARK   68  A    between atoms: _165  and  _167
REMARK   69  A    between atoms: _167  and  _168
REMARK   70  A    between atoms: _167  and  _170
REMARK   71  A    between atoms: _173  and  _175
REMARK   72  A    between atoms: _175  and  _176
REMARK   73  A    between atoms: _175  and  _178
REMARK   74  A    between atoms: _178  and  _179
REMARK   75  A    between atoms: _185  and  _187
REMARK   76  A    between atoms: _187  and  _188
REMARK   77  A    between atoms: _187  and  _190
REMARK   78  A    between atoms: _190  and  _191
REMARK   79  A    between atoms: _197  and  _199
REMARK   80  A    between atoms: _199  and  _200
REMARK   81  A    between atoms: _202  and  _204
REMARK   82  A    between atoms: _204  and  _205
REMARK   83  A    between atoms: _204  and  _207
REMARK   84  A    between atoms: _207  and  _208
REMARK   85  A    between atoms: _208  and  _209
REMARK   86  A    between atoms: _213  and  _214
REMARK   87  A    between atoms: _219  and  _221
REMARK   88  A    between atoms: _221  and  _222
REMARK   89  A    between atoms: _221  and  _224
REMARK   90  A    between atoms: _224  and  _225
REMARK   91  A    between atoms: _229  and  _230
REMARK   92  A    between atoms: _235  and  _237
REMARK   93  A    between atoms: _237  and  _238
REMARK   94  A    between atoms: _237  and  _240
REMARK   95  A    between atoms: _240  and  _241
REMARK   96  A    between atoms: _247  and  _249
REMARK   97  A    between atoms: _249  and  _250
REMARK   98  A    between atoms: _249  and  _252
REMARK   99  A    between atoms: _252  and  _253
REMARK  100  A    between atoms: _256  and  _258
REMARK  101  A    between atoms: _258  and  _259
REMARK  102  A    between atoms: _258  and  _261
REMARK  103  A    between atoms: _261  and  _262
REMARK  104  A    between atoms: _267  and  _269
REMARK  105  A    between atoms: _269  and  _270
REMARK  106  A    between atoms: _269  and  _272
REMARK  107  A    between atoms: _275  and  _277
REMARK  108  A    between atoms: _277  and  _278
REMARK  109  A    between atoms: _277  and  _280
REMARK  110  A    between atoms: _283  and  _285
REMARK  111  A    between atoms: _285  and  _286
REMARK  112  A    between atoms: _285  and  _288
REMARK  113  A    between atoms: _289  and  _290
REMARK  114  A    between atoms: _294  and  _295
REMARK  115  A    between atoms: _300  and  _302
REMARK  116  A    between atoms: _302  and  _303
REMARK  117  A    between atoms: _302  and  _305
REMARK  118  A    between atoms: _305  and  _306
REMARK  119  A    between atoms: _312  and  _314
REMARK  120  A    between atoms: _314  and  _315
REMARK  121  A    between atoms: _314  and  _317
REMARK  122  A    between atoms: _317  and  _318
REMARK  123  A    between atoms: _320  and  _322
REMARK  124  A    between atoms: _322  and  _323
REMARK  125  A    between atoms: _322  and  _325
REMARK  126  A    between atoms: _325  and  _326
REMARK                            x       y       z     vdW  Elec       q    Type
REMARK                         _______ _______ _______ _____ _____    ______ ____
ROOT
ATOM      1  O   HOH     1      26.799 -25.026   1.420  0.00  0.00    +0.000 OA
ENDROOT
TORSDOF 0
REMARK  Name = ../refined-set-2016/4fz3/4fz3_pocket.pdb
REMARK  126 active torsions:
REMARK  status: ('A' for Active; 'I' for Inactive)
REMARK    1  A    between atoms: _1  and  _3
REMARK    2  A    between atoms: _3  and  _4
REMARK    3  A    between atoms: _3  and  _6
REMARK    4  A    between atoms: _6  and  _7
REMARK    5  A    between atoms: _12  and  _13
REMARK    6  A    between atoms: _15  and  _17
REMARK    7  A    between atoms: _17  and  _18
REMARK    8  A    between atoms: _17  and  _20
REMARK    9  A    between atoms: _20  and  _21
REMARK   10  A    between atoms: _21  and  _22
REMARK   11  A    between atoms: _25  and  _27
REMARK   12  A    between atoms: _27  and  _28
REMARK   13  A    between atoms: _27  and  _30
REMARK   14  A    between atoms: _30  and  _31
REMARK   15  A    between atoms: _34  and  _36
REMARK   16  A    between atoms: _36  and  _37
REMARK   17  A    between atoms: _36  and  _39
REMARK   18  A    between atoms: _39  and  _40
REMARK   19  A    between atoms: _46  and  _48
REMARK   20  A    between atoms: _48  and  _49
REMARK   21  A    between atoms: _48  and  _51
REMARK   22  A    between atoms: _51  and  _52
REMARK   23  A    between atoms: _52  and  _53
REMARK   24  A    between atoms: _56  and  _58
REMARK   25  A    between atoms: _58  and  _59
REMARK   26  A    between atoms: _58  and  _61
REMARK   27  A    between atoms: _61  and  _62
REMARK   28  A    between atoms: _68  and  _70
REMARK   29  A    between atoms: _70  and  _71
REMARK   30  A    between atoms: _70  and  _73
REMARK   31  A    between atoms: _73  and  _74
REMARK   32  A    between atoms: _77  and  _79
REMARK   33  A    between atoms: _79  and  _80
REMARK   34  A    between atoms: _79  and  _82
REMARK   35  A    between atoms: _82  and  _83
REMARK   36  A    between atoms: _83  and  _84
REMARK   37  A    between atoms: _89  and  _91
REMARK   38  A    between atoms: _91  and  _92
REMARK   39  A    between atoms: _91  and  _94
REMARK   40  A    between atoms: _94  and  _95
REMARK   41  A    between atoms: _100  and  _102
REMARK   42  A    between atoms: _102  and  _103
REMARK   43  A    between atoms: _102  and  _105
REMARK   44  A    between atoms: _105  and  _106
REMARK   45  A    between atoms: _109  and  _111
REMARK   46  A    between atoms: _111  and  _112
REMARK   47  A    between atoms: _115  and  _117
REMARK   48  A    between atoms: _117  and  _118
REMARK   49  A    between atoms: _117  and  _120
REMARK   50  A    between atoms: _120  and  _121
REMARK   51  A    between atoms: _126  and  _128
REMARK   52  A    between atoms: _128  and  _129
REMARK   53  A    between atoms: _131  and  _133
REMARK   54  A    between atoms: _133  and  _134
REMARK   55  A    between atoms: _133  and  _136
REMARK   56  A    between atoms: _136  and  _137
REMARK   57  A    between atoms: _143  and  _145
REMARK   58  A    between atoms: _145  and  _146
REMARK   59  A    between atoms: _145  and  _148
REMARK   60  A    between atoms: _148  and  _149
REMARK   61  A    between atoms: _149  and  _150
REMARK   62  A    between atoms: _150  and  _151
REMARK   63  A    between atoms: _151  and  _152
REMARK   64  A    between atoms: _156  and  _158
REMARK   65  A    between atoms: _158  and  _159
REMARK   66  A    between atoms: _158  and  _161
REMARK   67  A    between atoms: _161  and  _162
REMARK   68  A    between atoms: _165  and  _167
REMARK   69  A    between atoms: _167  and  _168
REMARK   70  A    between atoms: _167  and  _170
REMARK   71  A    between atoms: _173  and  _175
REMARK   72  A    between atoms: _175  and  _176
REMARK   73  A    between atoms: _175  and  _178
REMARK   74  A    between atoms: _178  and  _179
REMARK   75  A    between atoms: _185  and  _187
REMARK   76  A    between atoms: _187  and  _188
REMARK   77  A    between atoms: _187  and  _190
REMARK   78  A    between atoms: _190  and  _191
REMARK   79  A    between atoms: _197  and  _199
REMARK   80  A    between atoms: _199  and  _200
REMARK   81  A    between atoms: _202  and  _204
REMARK   82  A    between atoms: _204  and  _205
REMARK   83  A    between atoms: _204  and  _207
REMARK   84  A    between atoms: _207  and  _208
REMARK   85  A    between atoms: _208  and  _209
REMARK   86  A    between atoms: _213  and  _214
REMARK   87  A    between atoms: _219  and  _221
REMARK   88  A    between atoms: _221  and  _222
REMARK   89  A    between atoms: _221  and  _224
REMARK   90  A    between atoms: _224  and  _225
REMARK   91  A    between atoms: _229  and  _230
REMARK   92  A    between atoms: _235  and  _237
REMARK   93  A    between atoms: _237  and  _238
REMARK   94  A    between atoms: _237  and  _240
REMARK   95  A    between atoms: _240  and  _241
REMARK   96  A    between atoms: _247  and  _249
REMARK   97  A    between atoms: _249  and  _250
REMARK   98  A    between atoms: _249  and  _252
REMARK   99  A    between atoms: _252  and  _253
REMARK  100  A    between atoms: _256  and  _258
REMARK  101  A    between atoms: _258  and  _259
REMARK  102  A    between atoms: _258  and  _261
REMARK  103  A    between atoms: _261  and  _262
REMARK  104  A    between atoms: _267  and  _269
REMARK  105  A    between atoms: _269  and  _270
REMARK  106  A    between atoms: _269  and  _272
REMARK  107  A    between atoms: _275  and  _277
REMARK  108  A    between atoms: _277  and  _278
REMARK  109  A    between atoms: _277  and  _280
REMARK  110  A    between atoms: _283  and  _285
REMARK  111  A    between atoms: _285  and  _286
REMARK  112  A    between atoms: _285  and  _288
REMARK  113  A    between atoms: _289  and  _290
REMARK  114  A    between atoms: _294  and  _295
REMARK  115  A    between atoms: _300  and  _302
REMARK  116  A    between atoms: _302  and  _303
REMARK  117  A    between atoms: _302  and  _305
REMARK  118  A    between atoms: _305  and  _306
REMARK  119  A    between atoms: _312  and  _314
REMARK  120  A    between atoms: _314  and  _315
REMARK  121  A    between atoms: _314  and  _317
REMARK  122  A    between atoms: _317  and  _318
REMARK  123  A    between atoms: _320  and  _322
REMARK  124  A    between atoms: _322  and  _323
REMARK  125  A    between atoms: _322  and  _325
REMARK  126  A    between atoms: _325  and  _326
REMARK                            x       y       z     vdW  Elec       q    Type
REMARK                         _______ _______ _______ _____ _____    ______ ____
ROOT
ATOM      1  O   HOH     1      26.805 -21.770   1.181  0.00  0.00    +0.000 OA
ENDROOT
TORSDOF 0
REMARK  Name = ../refined-set-2016/4fz3/4fz3_pocket.pdb
REMARK  126 active torsions:
REMARK  status: ('A' for Active; 'I' for Inactive)
REMARK    1  A    between atoms: _1  and  _3
REMARK    2  A    between atoms: _3  and  _4
REMARK    3  A    between atoms: _3  and  _6
REMARK    4  A    between atoms: _6  and  _7
REMARK    5  A    between atoms: _12  and  _13
REMARK    6  A    between atoms: _15  and  _17
REMARK    7  A    between atoms: _17  and  _18
REMARK    8  A    between atoms: _17  and  _20
REMARK    9  A    between atoms: _20  and  _21
REMARK   10  A    between atoms: _21  and  _22
REMARK   11  A    between atoms: _25  and  _27
REMARK   12  A    between atoms: _27  and  _28
REMARK   13  A    between atoms: _27  and  _30
REMARK   14  A    between atoms: _30  and  _31
REMARK   15  A    between atoms: _34  and  _36
REMARK   16  A    between atoms: _36  and  _37
REMARK   17  A    between atoms: _36  and  _39
REMARK   18  A    between atoms: _39  and  _40
REMARK   19  A    between atoms: _46  and  _48
REMARK   20  A    between atoms: _48  and  _49
REMARK   21  A    between atoms: _48  and  _51
REMARK   22  A    between atoms: _51  and  _52
REMARK   23  A    between atoms: _52  and  _53
REMARK   24  A    between atoms: _56  and  _58
REMARK   25  A    between atoms: _58  and  _59
REMARK   26  A    between atoms: _58  and  _61
REMARK   27  A    between atoms: _61  and  _62
REMARK   28  A    between atoms: _68  and  _70
REMARK   29  A    between atoms: _70  and  _71
REMARK   30  A    between atoms: _70  and  _73
REMARK   31  A    between atoms: _73  and  _74
REMARK   32  A    between atoms: _77  and  _79
REMARK   33  A    between atoms: _79  and  _80
REMARK   34  A    between atoms: _79  and  _82
REMARK   35  A    between atoms: _82  and  _83
REMARK   36  A    between atoms: _83  and  _84
REMARK   37  A    between atoms: _89  and  _91
REMARK   38  A    between atoms: _91  and  _92
REMARK   39  A    between atoms: _91  and  _94
REMARK   40  A    between atoms: _94  and  _95
REMARK   41  A    between atoms: _100  and  _102
REMARK   42  A    between atoms: _102  and  _103
REMARK   43  A    between atoms: _102  and  _105
REMARK   44  A    between atoms: _105  and  _106
REMARK   45  A    between atoms: _109  and  _111
REMARK   46  A    between atoms: _111  and  _112
REMARK   47  A    between atoms: _115  and  _117
REMARK   48  A    between atoms: _117  and  _118
REMARK   49  A    between atoms: _117  and  _120
REMARK   50  A    between atoms: _120  and  _121
REMARK   51  A    between atoms: _126  and  _128
REMARK   52  A    between atoms: _128  and  _129
REMARK   53  A    between atoms: _131  and  _133
REMARK   54  A    between atoms: _133  and  _134
REMARK   55  A    between atoms: _133  and  _136
REMARK   56  A    between atoms: _136  and  _137
REMARK   57  A    between atoms: _143  and  _145
REMARK   58  A    between atoms: _145  and  _146
REMARK   59  A    between atoms: _145  and  _148
REMARK   60  A    between atoms: _148  and  _149
REMARK   61  A    between atoms: _149  and  _150
REMARK   62  A    between atoms: _150  and  _151
REMARK   63  A    between atoms: _151  and  _152
REMARK   64  A    between atoms: _156  and  _158
REMARK   65  A    between atoms: _158  and  _159
REMARK   66  A    between atoms: _158  and  _161
REMARK   67  A    between atoms: _161  and  _162
REMARK   68  A    between atoms: _165  and  _167
REMARK   69  A    between atoms: _167  and  _168
REMARK   70  A    between atoms: _167  and  _170
REMARK   71  A    between atoms: _173  and  _175
REMARK   72  A    between atoms: _175  and  _176
REMARK   73  A    between atoms: _175  and  _178
REMARK   74  A    between atoms: _178  and  _179
REMARK   75  A    between atoms: _185  and  _187
REMARK   76  A    between atoms: _187  and  _188
REMARK   77  A    between atoms: _187  and  _190
REMARK   78  A    between atoms: _190  and  _191
REMARK   79  A    between atoms: _197  and  _199
REMARK   80  A    between atoms: _199  and  _200
REMARK   81  A    between atoms: _202  and  _204
REMARK   82  A    between atoms: _204  and  _205
REMARK   83  A    between atoms: _204  and  _207
REMARK   84  A    between atoms: _207  and  _208
REMARK   85  A    between atoms: _208  and  _209
REMARK   86  A    between atoms: _213  and  _214
REMARK   87  A    between atoms: _219  and  _221
REMARK   88  A    between atoms: _221  and  _222
REMARK   89  A    between atoms: _221  and  _224
REMARK   90  A    between atoms: _224  and  _225
REMARK   91  A    between atoms: _229  and  _230
REMARK   92  A    between atoms: _235  and  _237
REMARK   93  A    between atoms: _237  and  _238
REMARK   94  A    between atoms: _237  and  _240
REMARK   95  A    between atoms: _240  and  _241
REMARK   96  A    between atoms: _247  and  _249
REMARK   97  A    between atoms: _249  and  _250
REMARK   98  A    between atoms: _249  and  _252
REMARK   99  A    between atoms: _252  and  _253
REMARK  100  A    between atoms: _256  and  _258
REMARK  101  A    between atoms: _258  and  _259
REMARK  102  A    between atoms: _258  and  _261
REMARK  103  A    between atoms: _261  and  _262
REMARK  104  A    between atoms: _267  and  _269
REMARK  105  A    between atoms: _269  and  _270
REMARK  106  A    between atoms: _269  and  _272
REMARK  107  A    between atoms: _275  and  _277
REMARK  108  A    between atoms: _277  and  _278
REMARK  109  A    between atoms: _277  and  _280
REMARK  110  A    between atoms: _283  and  _285
REMARK  111  A    between atoms: _285  and  _286
REMARK  112  A    between atoms: _285  and  _288
REMARK  113  A    between atoms: _289  and  _290
REMARK  114  A    between atoms: _294  and  _295
REMARK  115  A    between atoms: _300  and  _302
REMARK  116  A    between atoms: _302  and  _303
REMARK  117  A    between atoms: _302  and  _305
REMARK  118  A    between atoms: _305  and  _306
REMARK  119  A    between atoms: _312  and  _314
REMARK  120  A    between atoms: _314  and  _315
REMARK  121  A    between atoms: _314  and  _317
REMARK  122  A    between atoms: _317  and  _318
REMARK  123  A    between atoms: _320  and  _322
REMARK  124  A    between atoms: _322  and  _323
REMARK  125  A    between atoms: _322  and  _325
REMARK  126  A    between atoms: _325  and  _326
REMARK                            x       y       z     vdW  Elec       q    Type
REMARK                         _______ _______ _______ _____ _____    ______ ____
ROOT
ATOM      1  O   HOH     1      21.585 -39.909  10.743  0.00  0.00    +0.000 OA
ENDROOT
TORSDOF 0
REMARK  Name = ../refined-set-2016/4fz3/4fz3_pocket.pdb
REMARK  126 active torsions:
REMARK  status: ('A' for Active; 'I' for Inactive)
REMARK    1  A    between atoms: _1  and  _3
REMARK    2  A    between atoms: _3  and  _4
REMARK    3  A    between atoms: _3  and  _6
REMARK    4  A    between atoms: _6  and  _7
REMARK    5  A    between atoms: _12  and  _13
REMARK    6  A    between atoms: _15  and  _17
REMARK    7  A    between atoms: _17  and  _18
REMARK    8  A    between atoms: _17  and  _20
REMARK    9  A    between atoms: _20  and  _21
REMARK   10  A    between atoms: _21  and  _22
REMARK   11  A    between atoms: _25  and  _27
REMARK   12  A    between atoms: _27  and  _28
REMARK   13  A    between atoms: _27  and  _30
REMARK   14  A    between atoms: _30  and  _31
REMARK   15  A    between atoms: _34  and  _36
REMARK   16  A    between atoms: _36  and  _37
REMARK   17  A    between atoms: _36  and  _39
REMARK   18  A    between atoms: _39  and  _40
REMARK   19  A    between atoms: _46  and  _48
REMARK   20  A    between atoms: _48  and  _49
REMARK   21  A    between atoms: _48  and  _51
REMARK   22  A    between atoms: _51  and  _52
REMARK   23  A    between atoms: _52  and  _53
REMARK   24  A    between atoms: _56  and  _58
REMARK   25  A    between atoms: _58  and  _59
REMARK   26  A    between atoms: _58  and  _61
REMARK   27  A    between atoms: _61  and  _62
REMARK   28  A    between atoms: _68  and  _70
REMARK   29  A    between atoms: _70  and  _71
REMARK   30  A    between atoms: _70  and  _73
REMARK   31  A    between atoms: _73  and  _74
REMARK   32  A    between atoms: _77  and  _79
REMARK   33  A    between atoms: _79  and  _80
REMARK   34  A    between atoms: _79  and  _82
REMARK   35  A    between atoms: _82  and  _83
REMARK   36  A    between atoms: _83  and  _84
REMARK   37  A    between atoms: _89  and  _91
REMARK   38  A    between atoms: _91  and  _92
REMARK   39  A    between atoms: _91  and  _94
REMARK   40  A    between atoms: _94  and  _95
REMARK   41  A    between atoms: _100  and  _102
REMARK   42  A    between atoms: _102  and  _103
REMARK   43  A    between atoms: _102  and  _105
REMARK   44  A    between atoms: _105  and  _106
REMARK   45  A    between atoms: _109  and  _111
REMARK   46  A    between atoms: _111  and  _112
REMARK   47  A    between atoms: _115  and  _117
REMARK   48  A    between atoms: _117  and  _118
REMARK   49  A    between atoms: _117  and  _120
REMARK   50  A    between atoms: _120  and  _121
REMARK   51  A    between atoms: _126  and  _128
REMARK   52  A    between atoms: _128  and  _129
REMARK   53  A    between atoms: _131  and  _133
REMARK   54  A    between atoms: _133  and  _134
REMARK   55  A    between atoms: _133  and  _136
REMARK   56  A    between atoms: _136  and  _137
REMARK   57  A    between atoms: _143  and  _145
REMARK   58  A    between atoms: _145  and  _146
REMARK   59  A    between atoms: _145  and  _148
REMARK   60  A    between atoms: _148  and  _149
REMARK   61  A    between atoms: _149  and  _150
REMARK   62  A    between atoms: _150  and  _151
REMARK   63  A    between atoms: _151  and  _152
REMARK   64  A    between atoms: _156  and  _158
REMARK   65  A    between atoms: _158  and  _159
REMARK   66  A    between atoms: _158  and  _161
REMARK   67  A    between atoms: _161  and  _162
REMARK   68  A    between atoms: _165  and  _167
REMARK   69  A    between atoms: _167  and  _168
REMARK   70  A    between atoms: _167  and  _170
REMARK   71  A    between atoms: _173  and  _175
REMARK   72  A    between atoms: _175  and  _176
REMARK   73  A    between atoms: _175  and  _178
REMARK   74  A    between atoms: _178  and  _179
REMARK   75  A    between atoms: _185  and  _187
REMARK   76  A    between atoms: _187  and  _188
REMARK   77  A    between atoms: _187  and  _190
REMARK   78  A    between atoms: _190  and  _191
REMARK   79  A    between atoms: _197  and  _199
REMARK   80  A    between atoms: _199  and  _200
REMARK   81  A    between atoms: _202  and  _204
REMARK   82  A    between atoms: _204  and  _205
REMARK   83  A    between atoms: _204  and  _207
REMARK   84  A    between atoms: _207  and  _208
REMARK   85  A    between atoms: _208  and  _209
REMARK   86  A    between atoms: _213  and  _214
REMARK   87  A    between atoms: _219  and  _221
REMARK   88  A    between atoms: _221  and  _222
REMARK   89  A    between atoms: _221  and  _224
REMARK   90  A    between atoms: _224  and  _225
REMARK   91  A    between atoms: _229  and  _230
REMARK   92  A    between atoms: _235  and  _237
REMARK   93  A    between atoms: _237  and  _238
REMARK   94  A    between atoms: _237  and  _240
REMARK   95  A    between atoms: _240  and  _241
REMARK   96  A    between atoms: _247  and  _249
REMARK   97  A    between atoms: _249  and  _250
REMARK   98  A    between atoms: _249  and  _252
REMARK   99  A    between atoms: _252  and  _253
REMARK  100  A    between atoms: _256  and  _258
REMARK  101  A    between atoms: _258  and  _259
REMARK  102  A    between atoms: _258  and  _261
REMARK  103  A    between atoms: _261  and  _262
REMARK  104  A    between atoms: _267  and  _269
REMARK  105  A    between atoms: _269  and  _270
REMARK  106  A    between atoms: _269  and  _272
REMARK  107  A    between atoms: _275  and  _277
REMARK  108  A    between atoms: _277  and  _278
REMARK  109  A    between atoms: _277  and  _280
REMARK  110  A    between atoms: _283  and  _285
REMARK  111  A    between atoms: _285  and  _286
REMARK  112  A    between atoms: _285  and  _288
REMARK  113  A    between atoms: _289  and  _290
REMARK  114  A    between atoms: _294  and  _295
REMARK  115  A    between atoms: _300  and  _302
REMARK  116  A    between atoms: _302  and  _303
REMARK  117  A    between atoms: _302  and  _305
REMARK  118  A    between atoms: _305  and  _306
REMARK  119  A    between atoms: _312  and  _314
REMARK  120  A    between atoms: _314  and  _315
REMARK  121  A    between atoms: _314  and  _317
REMARK  122  A    between atoms: _317  and  _318
REMARK  123  A    between atoms: _320  and  _322
REMARK  124  A    between atoms: _322  and  _323
REMARK  125  A    between atoms: _322  and  _325
REMARK  126  A    between atoms: _325  and  _326
REMARK                            x       y       z     vdW  Elec       q    Type
REMARK                         _______ _______ _______ _____ _____    ______ ____
ROOT
ATOM      1  O   HOH     1      30.284 -26.489  -0.762  0.00  0.00    +0.000 OA
ENDROOT
TORSDOF 0
REMARK  Name = ../refined-set-2016/4fz3/4fz3_pocket.pdb
REMARK  126 active torsions:
REMARK  status: ('A' for Active; 'I' for Inactive)
REMARK    1  A    between atoms: _1  and  _3
REMARK    2  A    between atoms: _3  and  _4
REMARK    3  A    between atoms: _3  and  _6
REMARK    4  A    between atoms: _6  and  _7
REMARK    5  A    between atoms: _12  and  _13
REMARK    6  A    between atoms: _15  and  _17
REMARK    7  A    between atoms: _17  and  _18
REMARK    8  A    between atoms: _17  and  _20
REMARK    9  A    between atoms: _20  and  _21
REMARK   10  A    between atoms: _21  and  _22
REMARK   11  A    between atoms: _25  and  _27
REMARK   12  A    between atoms: _27  and  _28
REMARK   13  A    between atoms: _27  and  _30
REMARK   14  A    between atoms: _30  and  _31
REMARK   15  A    between atoms: _34  and  _36
REMARK   16  A    between atoms: _36  and  _37
REMARK   17  A    between atoms: _36  and  _39
REMARK   18  A    between atoms: _39  and  _40
REMARK   19  A    between atoms: _46  and  _48
REMARK   20  A    between atoms: _48  and  _49
REMARK   21  A    between atoms: _48  and  _51
REMARK   22  A    between atoms: _51  and  _52
REMARK   23  A    between atoms: _52  and  _53
REMARK   24  A    between atoms: _56  and  _58
REMARK   25  A    between atoms: _58  and  _59
REMARK   26  A    between atoms: _58  and  _61
REMARK   27  A    between atoms: _61  and  _62
REMARK   28  A    between atoms: _68  and  _70
REMARK   29  A    between atoms: _70  and  _71
REMARK   30  A    between atoms: _70  and  _73
REMARK   31  A    between atoms: _73  and  _74
REMARK   32  A    between atoms: _77  and  _79
REMARK   33  A    between atoms: _79  and  _80
REMARK   34  A    between atoms: _79  and  _82
REMARK   35  A    between atoms: _82  and  _83
REMARK   36  A    between atoms: _83  and  _84
REMARK   37  A    between atoms: _89  and  _91
REMARK   38  A    between atoms: _91  and  _92
REMARK   39  A    between atoms: _91  and  _94
REMARK   40  A    between atoms: _94  and  _95
REMARK   41  A    between atoms: _100  and  _102
REMARK   42  A    between atoms: _102  and  _103
REMARK   43  A    between atoms: _102  and  _105
REMARK   44  A    between atoms: _105  and  _106
REMARK   45  A    between atoms: _109  and  _111
REMARK   46  A    between atoms: _111  and  _112
REMARK   47  A    between atoms: _115  and  _117
REMARK   48  A    between atoms: _117  and  _118
REMARK   49  A    between atoms: _117  and  _120
REMARK   50  A    between atoms: _120  and  _121
REMARK   51  A    between atoms: _126  and  _128
REMARK   52  A    between atoms: _128  and  _129
REMARK   53  A    between atoms: _131  and  _133
REMARK   54  A    between atoms: _133  and  _134
REMARK   55  A    between atoms: _133  and  _136
REMARK   56  A    between atoms: _136  and  _137
REMARK   57  A    between atoms: _143  and  _145
REMARK   58  A    between atoms: _145  and  _146
REMARK   59  A    between atoms: _145  and  _148
REMARK   60  A    between atoms: _148  and  _149
REMARK   61  A    between atoms: _149  and  _150
REMARK   62  A    between atoms: _150  and  _151
REMARK   63  A    between atoms: _151  and  _152
REMARK   64  A    between atoms: _156  and  _158
REMARK   65  A    between atoms: _158  and  _159
REMARK   66  A    between atoms: _158  and  _161
REMARK   67  A    between atoms: _161  and  _162
REMARK   68  A    between atoms: _165  and  _167
REMARK   69  A    between atoms: _167  and  _168
REMARK   70  A    between atoms: _167  and  _170
REMARK   71  A    between atoms: _173  and  _175
REMARK   72  A    between atoms: _175  and  _176
REMARK   73  A    between atoms: _175  and  _178
REMARK   74  A    between atoms: _178  and  _179
REMARK   75  A    between atoms: _185  and  _187
REMARK   76  A    between atoms: _187  and  _188
REMARK   77  A    between atoms: _187  and  _190
REMARK   78  A    between atoms: _190  and  _191
REMARK   79  A    between atoms: _197  and  _199
REMARK   80  A    between atoms: _199  and  _200
REMARK   81  A    between atoms: _202  and  _204
REMARK   82  A    between atoms: _204  and  _205
REMARK   83  A    between atoms: _204  and  _207
REMARK   84  A    between atoms: _207  and  _208
REMARK   85  A    between atoms: _208  and  _209
REMARK   86  A    between atoms: _213  and  _214
REMARK   87  A    between atoms: _219  and  _221
REMARK   88  A    between atoms: _221  and  _222
REMARK   89  A    between atoms: _221  and  _224
REMARK   90  A    between atoms: _224  and  _225
REMARK   91  A    between atoms: _229  and  _230
REMARK   92  A    between atoms: _235  and  _237
REMARK   93  A    between atoms: _237  and  _238
REMARK   94  A    between atoms: _237  and  _240
REMARK   95  A    between atoms: _240  and  _241
REMARK   96  A    between atoms: _247  and  _249
REMARK   97  A    between atoms: _249  and  _250
REMARK   98  A    between atoms: _249  and  _252
REMARK   99  A    between atoms: _252  and  _253
REMARK  100  A    between atoms: _256  and  _258
REMARK  101  A    between atoms: _258  and  _259
REMARK  102  A    between atoms: _258  and  _261
REMARK  103  A    between atoms: _261  and  _262
REMARK  104  A    between atoms: _267  and  _269
REMARK  105  A    between atoms: _269  and  _270
REMARK  106  A    between atoms: _269  and  _272
REMARK  107  A    between atoms: _275  and  _277
REMARK  108  A    between atoms: _277  and  _278
REMARK  109  A    between atoms: _277  and  _280
REMARK  110  A    between atoms: _283  and  _285
REMARK  111  A    between atoms: _285  and  _286
REMARK  112  A    between atoms: _285  and  _288
REMARK  113  A    between atoms: _289  and  _290
REMARK  114  A    between atoms: _294  and  _295
REMARK  115  A    between atoms: _300  and  _302
REMARK  116  A    between atoms: _302  and  _303
REMARK  117  A    between atoms: _302  and  _305
REMARK  118  A    between atoms: _305  and  _306
REMARK  119  A    between atoms: _312  and  _314
REMARK  120  A    between atoms: _314  and  _315
REMARK  121  A    between atoms: _314  and  _317
REMARK  122  A    between atoms: _317  and  _318
REMARK  123  A    between atoms: _320  and  _322
REMARK  124  A    between atoms: _322  and  _323
REMARK  125  A    between atoms: _322  and  _325
REMARK  126  A    between atoms: _325  and  _326
REMARK                            x       y       z     vdW  Elec       q    Type
REMARK                         _______ _______ _______ _____ _____    ______ ____
ROOT
ATOM      1  O   HOH     1      26.628 -28.404  -0.016  0.00  0.00    +0.000 OA
ENDROOT
TORSDOF 0
REMARK  Name = ../refined-set-2016/4fz3/4fz3_pocket.pdb
REMARK  126 active torsions:
REMARK  status: ('A' for Active; 'I' for Inactive)
REMARK    1  A    between atoms: _1  and  _3
REMARK    2  A    between atoms: _3  and  _4
REMARK    3  A    between atoms: _3  and  _6
REMARK    4  A    between atoms: _6  and  _7
REMARK    5  A    between atoms: _12  and  _13
REMARK    6  A    between atoms: _15  and  _17
REMARK    7  A    between atoms: _17  and  _18
REMARK    8  A    between atoms: _17  and  _20
REMARK    9  A    between atoms: _20  and  _21
REMARK   10  A    between atoms: _21  and  _22
REMARK   11  A    between atoms: _25  and  _27
REMARK   12  A    between atoms: _27  and  _28
REMARK   13  A    between atoms: _27  and  _30
REMARK   14  A    between atoms: _30  and  _31
REMARK   15  A    between atoms: _34  and  _36
REMARK   16  A    between atoms: _36  and  _37
REMARK   17  A    between atoms: _36  and  _39
REMARK   18  A    between atoms: _39  and  _40
REMARK   19  A    between atoms: _46  and  _48
REMARK   20  A    between atoms: _48  and  _49
REMARK   21  A    between atoms: _48  and  _51
REMARK   22  A    between atoms: _51  and  _52
REMARK   23  A    between atoms: _52  and  _53
REMARK   24  A    between atoms: _56  and  _58
REMARK   25  A    between atoms: _58  and  _59
REMARK   26  A    between atoms: _58  and  _61
REMARK   27  A    between atoms: _61  and  _62
REMARK   28  A    between atoms: _68  and  _70
REMARK   29  A    between atoms: _70  and  _71
REMARK   30  A    between atoms: _70  and  _73
REMARK   31  A    between atoms: _73  and  _74
REMARK   32  A    between atoms: _77  and  _79
REMARK   33  A    between atoms: _79  and  _80
REMARK   34  A    between atoms: _79  and  _82
REMARK   35  A    between atoms: _82  and  _83
REMARK   36  A    between atoms: _83  and  _84
REMARK   37  A    between atoms: _89  and  _91
REMARK   38  A    between atoms: _91  and  _92
REMARK   39  A    between atoms: _91  and  _94
REMARK   40  A    between atoms: _94  and  _95
REMARK   41  A    between atoms: _100  and  _102
REMARK   42  A    between atoms: _102  and  _103
REMARK   43  A    between atoms: _102  and  _105
REMARK   44  A    between atoms: _105  and  _106
REMARK   45  A    between atoms: _109  and  _111
REMARK   46  A    between atoms: _111  and  _112
REMARK   47  A    between atoms: _115  and  _117
REMARK   48  A    between atoms: _117  and  _118
REMARK   49  A    between atoms: _117  and  _120
REMARK   50  A    between atoms: _120  and  _121
REMARK   51  A    between atoms: _126  and  _128
REMARK   52  A    between atoms: _128  and  _129
REMARK   53  A    between atoms: _131  and  _133
REMARK   54  A    between atoms: _133  and  _134
REMARK   55  A    between atoms: _133  and  _136
REMARK   56  A    between atoms: _136  and  _137
REMARK   57  A    between atoms: _143  and  _145
REMARK   58  A    between atoms: _145  and  _146
REMARK   59  A    between atoms: _145  and  _148
REMARK   60  A    between atoms: _148  and  _149
REMARK   61  A    between atoms: _149  and  _150
REMARK   62  A    between atoms: _150  and  _151
REMARK   63  A    between atoms: _151  and  _152
REMARK   64  A    between atoms: _156  and  _158
REMARK   65  A    between atoms: _158  and  _159
REMARK   66  A    between atoms: _158  and  _161
REMARK   67  A    between atoms: _161  and  _162
REMARK   68  A    between atoms: _165  and  _167
REMARK   69  A    between atoms: _167  and  _168
REMARK   70  A    between atoms: _167  and  _170
REMARK   71  A    between atoms: _173  and  _175
REMARK   72  A    between atoms: _175  and  _176
REMARK   73  A    between atoms: _175  and  _178
REMARK   74  A    between atoms: _178  and  _179
REMARK   75  A    between atoms: _185  and  _187
REMARK   76  A    between atoms: _187  and  _188
REMARK   77  A    between atoms: _187  and  _190
REMARK   78  A    between atoms: _190  and  _191
REMARK   79  A    between atoms: _197  and  _199
REMARK   80  A    between atoms: _199  and  _200
REMARK   81  A    between atoms: _202  and  _204
REMARK   82  A    between atoms: _204  and  _205
REMARK   83  A    between atoms: _204  and  _207
REMARK   84  A    between atoms: _207  and  _208
REMARK   85  A    between atoms: _208  and  _209
REMARK   86  A    between atoms: _213  and  _214
REMARK   87  A    between atoms: _219  and  _221
REMARK   88  A    between atoms: _221  and  _222
REMARK   89  A    between atoms: _221  and  _224
REMARK   90  A    between atoms: _224  and  _225
REMARK   91  A    between atoms: _229  and  _230
REMARK   92  A    between atoms: _235  and  _237
REMARK   93  A    between atoms: _237  and  _238
REMARK   94  A    between atoms: _237  and  _240
REMARK   95  A    between atoms: _240  and  _241
REMARK   96  A    between atoms: _247  and  _249
REMARK   97  A    between atoms: _249  and  _250
REMARK   98  A    between atoms: _249  and  _252
REMARK   99  A    between atoms: _252  and  _253
REMARK  100  A    between atoms: _256  and  _258
REMARK  101  A    between atoms: _258  and  _259
REMARK  102  A    between atoms: _258  and  _261
REMARK  103  A    between atoms: _261  and  _262
REMARK  104  A    between atoms: _267  and  _269
REMARK  105  A    between atoms: _269  and  _270
REMARK  106  A    between atoms: _269  and  _272
REMARK  107  A    between atoms: _275  and  _277
REMARK  108  A    between atoms: _277  and  _278
REMARK  109  A    between atoms: _277  and  _280
REMARK  110  A    between atoms: _283  and  _285
REMARK  111  A    between atoms: _285  and  _286
REMARK  112  A    between atoms: _285  and  _288
REMARK  113  A    between atoms: _289  and  _290
REMARK  114  A    between atoms: _294  and  _295
REMARK  115  A    between atoms: _300  and  _302
REMARK  116  A    between atoms: _302  and  _303
REMARK  117  A    between atoms: _302  and  _305
REMARK  118  A    between atoms: _305  and  _306
REMARK  119  A    between atoms: _312  and  _314
REMARK  120  A    between atoms: _314  and  _315
REMARK  121  A    between atoms: _314  and  _317
REMARK  122  A    between atoms: _317  and  _318
REMARK  123  A    between atoms: _320  and  _322
REMARK  124  A    between atoms: _322  and  _323
REMARK  125  A    between atoms: _322  and  _325
REMARK  126  A    between atoms: _325  and  _326
REMARK                            x       y       z     vdW  Elec       q    Type
REMARK                         _______ _______ _______ _____ _____    ______ ____
ROOT
ATOM      1  O   HOH     1      22.842 -29.932  -1.591  0.00  0.00    +0.000 OA
ENDROOT
TORSDOF 0
REMARK  Name = ../refined-set-2016/4fz3/4fz3_pocket.pdb
REMARK  126 active torsions:
REMARK  status: ('A' for Active; 'I' for Inactive)
REMARK    1  A    between atoms: _1  and  _3
REMARK    2  A    between atoms: _3  and  _4
REMARK    3  A    between atoms: _3  and  _6
REMARK    4  A    between atoms: _6  and  _7
REMARK    5  A    between atoms: _12  and  _13
REMARK    6  A    between atoms: _15  and  _17
REMARK    7  A    between atoms: _17  and  _18
REMARK    8  A    between atoms: _17  and  _20
REMARK    9  A    between atoms: _20  and  _21
REMARK   10  A    between atoms: _21  and  _22
REMARK   11  A    between atoms: _25  and  _27
REMARK   12  A    between atoms: _27  and  _28
REMARK   13  A    between atoms: _27  and  _30
REMARK   14  A    between atoms: _30  and  _31
REMARK   15  A    between atoms: _34  and  _36
REMARK   16  A    between atoms: _36  and  _37
REMARK   17  A    between atoms: _36  and  _39
REMARK   18  A    between atoms: _39  and  _40
REMARK   19  A    between atoms: _46  and  _48
REMARK   20  A    between atoms: _48  and  _49
REMARK   21  A    between atoms: _48  and  _51
REMARK   22  A    between atoms: _51  and  _52
REMARK   23  A    between atoms: _52  and  _53
REMARK   24  A    between atoms: _56  and  _58
REMARK   25  A    between atoms: _58  and  _59
REMARK   26  A    between atoms: _58  and  _61
REMARK   27  A    between atoms: _61  and  _62
REMARK   28  A    between atoms: _68  and  _70
REMARK   29  A    between atoms: _70  and  _71
REMARK   30  A    between atoms: _70  and  _73
REMARK   31  A    between atoms: _73  and  _74
REMARK   32  A    between atoms: _77  and  _79
REMARK   33  A    between atoms: _79  and  _80
REMARK   34  A    between atoms: _79  and  _82
REMARK   35  A    between atoms: _82  and  _83
REMARK   36  A    between atoms: _83  and  _84
REMARK   37  A    between atoms: _89  and  _91
REMARK   38  A    between atoms: _91  and  _92
REMARK   39  A    between atoms: _91  and  _94
REMARK   40  A    between atoms: _94  and  _95
REMARK   41  A    between atoms: _100  and  _102
REMARK   42  A    between atoms: _102  and  _103
REMARK   43  A    between atoms: _102  and  _105
REMARK   44  A    between atoms: _105  and  _106
REMARK   45  A    between atoms: _109  and  _111
REMARK   46  A    between atoms: _111  and  _112
REMARK   47  A    between atoms: _115  and  _117
REMARK   48  A    between atoms: _117  and  _118
REMARK   49  A    between atoms: _117  and  _120
REMARK   50  A    between atoms: _120  and  _121
REMARK   51  A    between atoms: _126  and  _128
REMARK   52  A    between atoms: _128  and  _129
REMARK   53  A    between atoms: _131  and  _133
REMARK   54  A    between atoms: _133  and  _134
REMARK   55  A    between atoms: _133  and  _136
REMARK   56  A    between atoms: _136  and  _137
REMARK   57  A    between atoms: _143  and  _145
REMARK   58  A    between atoms: _145  and  _146
REMARK   59  A    between atoms: _145  and  _148
REMARK   60  A    between atoms: _148  and  _149
REMARK   61  A    between atoms: _149  and  _150
REMARK   62  A    between atoms: _150  and  _151
REMARK   63  A    between atoms: _151  and  _152
REMARK   64  A    between atoms: _156  and  _158
REMARK   65  A    between atoms: _158  and  _159
REMARK   66  A    between atoms: _158  and  _161
REMARK   67  A    between atoms: _161  and  _162
REMARK   68  A    between atoms: _165  and  _167
REMARK   69  A    between atoms: _167  and  _168
REMARK   70  A    between atoms: _167  and  _170
REMARK   71  A    between atoms: _173  and  _175
REMARK   72  A    between atoms: _175  and  _176
REMARK   73  A    between atoms: _175  and  _178
REMARK   74  A    between atoms: _178  and  _179
REMARK   75  A    between atoms: _185  and  _187
REMARK   76  A    between atoms: _187  and  _188
REMARK   77  A    between atoms: _187  and  _190
REMARK   78  A    between atoms: _190  and  _191
REMARK   79  A    between atoms: _197  and  _199
REMARK   80  A    between atoms: _199  and  _200
REMARK   81  A    between atoms: _202  and  _204
REMARK   82  A    between atoms: _204  and  _205
REMARK   83  A    between atoms: _204  and  _207
REMARK   84  A    between atoms: _207  and  _208
REMARK   85  A    between atoms: _208  and  _209
REMARK   86  A    between atoms: _213  and  _214
REMARK   87  A    between atoms: _219  and  _221
REMARK   88  A    between atoms: _221  and  _222
REMARK   89  A    between atoms: _221  and  _224
REMARK   90  A    between atoms: _224  and  _225
REMARK   91  A    between atoms: _229  and  _230
REMARK   92  A    between atoms: _235  and  _237
REMARK   93  A    between atoms: _237  and  _238
REMARK   94  A    between atoms: _237  and  _240
REMARK   95  A    between atoms: _240  and  _241
REMARK   96  A    between atoms: _247  and  _249
REMARK   97  A    between atoms: _249  and  _250
REMARK   98  A    between atoms: _249  and  _252
REMARK   99  A    between atoms: _252  and  _253
REMARK  100  A    between atoms: _256  and  _258
REMARK  101  A    between atoms: _258  and  _259
REMARK  102  A    between atoms: _258  and  _261
REMARK  103  A    between atoms: _261  and  _262
REMARK  104  A    between atoms: _267  and  _269
REMARK  105  A    between atoms: _269  and  _270
REMARK  106  A    between atoms: _269  and  _272
REMARK  107  A    between atoms: _275  and  _277
REMARK  108  A    between atoms: _277  and  _278
REMARK  109  A    between atoms: _277  and  _280
REMARK  110  A    between atoms: _283  and  _285
REMARK  111  A    between atoms: _285  and  _286
REMARK  112  A    between atoms: _285  and  _288
REMARK  113  A    between atoms: _289  and  _290
REMARK  114  A    between atoms: _294  and  _295
REMARK  115  A    between atoms: _300  and  _302
REMARK  116  A    between atoms: _302  and  _303
REMARK  117  A    between atoms: _302  and  _305
REMARK  118  A    between atoms: _305  and  _306
REMARK  119  A    between atoms: _312  and  _314
REMARK  120  A    between atoms: _314  and  _315
REMARK  121  A    between atoms: _314  and  _317
REMARK  122  A    between atoms: _317  and  _318
REMARK  123  A    between atoms: _320  and  _322
REMARK  124  A    between atoms: _322  and  _323
REMARK  125  A    between atoms: _322  and  _325
REMARK  126  A    between atoms: _325  and  _326
REMARK                            x       y       z     vdW  Elec       q    Type
REMARK                         _______ _______ _______ _____ _____    ______ ____
ROOT
ATOM      1  O   HOH     1      24.113 -29.079   0.395  0.00  0.00    +0.000 OA
ENDROOT
TORSDOF 0
