REMARK  Name = ../refined-set-2016/1fao/1fao_pocket.pdb
REMARK  104 active torsions:
REMARK  status: ('A' for Active; 'I' for Inactive)
REMARK    1  A    between atoms: _1  and  _3
REMARK    2  A    between atoms: _3  and  _4
REMARK    3  A    between atoms: _3  and  _6
REMARK    4  A    between atoms: _6  and  _7
REMARK    5  A    between atoms: _7  and  _8
REMARK    6  A    between atoms: _8  and  _9
REMARK    7  A    between atoms: _9  and  _10
REMARK    8  A    between atoms: _14  and  _16
REMARK    9  A    between atoms: _16  and  _17
REMARK   10  A    between atoms: _16  and  _19
REMARK   11  A    between atoms: _19  and  _20
REMARK   12  A    between atoms: _20  and  _21
REMARK   13  A    between atoms: _26  and  _28
REMARK   14  A    between atoms: _28  and  _29
REMARK   15  A    between atoms: _31  and  _33
REMARK   16  A    between atoms: _33  and  _34
REMARK   17  A    between atoms: _36  and  _38
REMARK   18  A    between atoms: _38  and  _39
REMARK   19  A    between atoms: _38  and  _41
REMARK   20  A    between atoms: _41  and  _42
REMARK   21  A    between atoms: _45  and  _47
REMARK   22  A    between atoms: _47  and  _48
REMARK   23  A    between atoms: _47  and  _50
REMARK   24  A    between atoms: _53  and  _55
REMARK   25  A    between atoms: _55  and  _56
REMARK   26  A    between atoms: _55  and  _58
REMARK   27  A    between atoms: _58  and  _59
REMARK   28  A    between atoms: _59  and  _60
REMARK   29  A    between atoms: _60  and  _61
REMARK   30  A    between atoms: _61  and  _62
REMARK   31  A    between atoms: _66  and  _68
REMARK   32  A    between atoms: _68  and  _69
REMARK   33  A    between atoms: _68  and  _71
REMARK   34  A    between atoms: _71  and  _72
REMARK   35  A    between atoms: _75  and  _77
REMARK   36  A    between atoms: _77  and  _78
REMARK   37  A    between atoms: _77  and  _80
REMARK   38  A    between atoms: _80  and  _81
REMARK   39  A    between atoms: _91  and  _93
REMARK   40  A    between atoms: _93  and  _94
REMARK   41  A    between atoms: _93  and  _96
REMARK   42  A    between atoms: _96  and  _97
REMARK   43  A    between atoms: _97  and  _98
REMARK   44  A    between atoms: _98  and  _99
REMARK   45  A    between atoms: _99  and  _100
REMARK   46  A    between atoms: _104  and  _106
REMARK   47  A    between atoms: _106  and  _107
REMARK   48  A    between atoms: _106  and  _109
REMARK   49  A    between atoms: _109  and  _110
REMARK   50  A    between atoms: _113  and  _115
REMARK   51  A    between atoms: _115  and  _116
REMARK   52  A    between atoms: _115  and  _118
REMARK   53  A    between atoms: _118  and  _119
REMARK   54  A    between atoms: _119  and  _120
REMARK   55  A    between atoms: _120  and  _121
REMARK   56  A    between atoms: _130  and  _132
REMARK   57  A    between atoms: _132  and  _133
REMARK   58  A    between atoms: _132  and  _135
REMARK   59  A    between atoms: _135  and  _136
REMARK   60  A    between atoms: _146  and  _148
REMARK   61  A    between atoms: _148  and  _149
REMARK   62  A    between atoms: _148  and  _151
REMARK   63  A    between atoms: _151  and  _152
REMARK   64  A    between atoms: _158  and  _160
REMARK   65  A    between atoms: _160  and  _161
REMARK   66  A    between atoms: _160  and  _163
REMARK   67  A    between atoms: _163  and  _164
REMARK   68  A    between atoms: _169  and  _170
REMARK   69  A    between atoms: _172  and  _174
REMARK   70  A    between atoms: _174  and  _175
REMARK   71  A    between atoms: _174  and  _177
REMARK   72  A    between atoms: _177  and  _178
REMARK   73  A    between atoms: _184  and  _186
REMARK   74  A    between atoms: _186  and  _187
REMARK   75  A    between atoms: _186  and  _189
REMARK   76  A    between atoms: _189  and  _190
REMARK   77  A    between atoms: _190  and  _191
REMARK   78  A    between atoms: _191  and  _192
REMARK   79  A    between atoms: _192  and  _193
REMARK   80  A    between atoms: _197  and  _199
REMARK   81  A    between atoms: _199  and  _200
REMARK   82  A    between atoms: _199  and  _202
REMARK   83  A    between atoms: _202  and  _203
REMARK   84  A    between atoms: _206  and  _208
REMARK   85  A    between atoms: _208  and  _209
REMARK   86  A    between atoms: _208  and  _211
REMARK   87  A    between atoms: _211  and  _212
REMARK   88  A    between atoms: _212  and  _213
REMARK   89  A    between atoms: _213  and  _214
REMARK   90  A    between atoms: _223  and  _225
REMARK   91  A    between atoms: _225  and  _226
REMARK   92  A    between atoms: _225  and  _228
REMARK   93  A    between atoms: _228  and  _229
REMARK   94  A    between atoms: _229  and  _230
REMARK   95  A    between atoms: _230  and  _231
REMARK   96  A    between atoms: _240  and  _242
REMARK   97  A    between atoms: _242  and  _243
REMARK   98  A    between atoms: _242  and  _245
REMARK   99  A    between atoms: _245  and  _246
REMARK  100  A    between atoms: _252  and  _254
REMARK  101  A    between atoms: _254  and  _255
REMARK  102  A    between atoms: _254  and  _257
REMARK  103  A    between atoms: _257  and  _258
REMARK  104  A    between atoms: _263  and  _264
REMARK                            x       y       z     vdW  Elec       q    Type
REMARK                         _______ _______ _______ _____ _____    ______ ____
ROOT
ATOM      1  CA  TRP A   9      26.272  12.607  13.355  0.00  0.00    +0.153 C 
ENDROOT
BRANCH   1   4
ATOM      2  C   THR A   8      27.693  11.091  12.118  0.00  0.00    +0.243 C 
ATOM      3  O   THR A   8      27.114  10.114  12.594  0.00  0.00    -0.273 OA
ATOM      4  N   TRP A   9      27.371  12.338  12.439  0.00  0.00    -0.297 N 
ATOM      5  H   TRP A   9      27.909  13.130  12.032  0.00  0.00    +0.150 HD
BRANCH   2   6
ATOM      6  CA  THR A   8      28.850  10.909  11.138  0.00  0.00    +0.176 C 
BRANCH   6   9
ATOM      7  C   LYS A   7      30.319   9.527  12.461  0.00  0.00    +0.241 C 
ATOM      8  O   LYS A   7      30.598  10.471  13.200  0.00  0.00    -0.273 OA
ATOM      9  N   THR A   8      29.490   9.640  11.433  0.00  0.00    -0.295 N 
ATOM     10  H   THR A   8      29.297   8.813  10.833  0.00  0.00    +0.150 HD
BRANCH   7  11
ATOM     11  CA  LYS A   7      30.907   8.146  12.711  0.00  0.00    +0.149 C 
BRANCH  11  13
ATOM     12  C   VAL A   6      30.601   6.722  10.762  0.00  0.00    +0.241 C 
ATOM     13  N   LYS A   7      31.410   7.400  11.567  0.00  0.00    -0.297 N 
ATOM     14  H   LYS A   7      32.432   7.398  11.375  0.00  0.00    +0.150 HD
ATOM     15  O   VAL A   6      29.378   6.715  10.888  0.00  0.00    -0.273 OA
BRANCH  12  16
ATOM     16  CA  VAL A   6      31.276   5.923   9.653  0.00  0.00    +0.149 C 
BRANCH  16  19
ATOM     17  C   LEU A   5      32.088   3.947  10.824  0.00  0.00    +0.241 C 
ATOM     18  O   LEU A   5      33.171   4.473  11.082  0.00  0.00    -0.273 OA
ATOM     19  N   VAL A   6      31.136   4.549  10.120  0.00  0.00    -0.297 N 
ATOM     20  H   VAL A   6      30.266   4.025   9.896  0.00  0.00    +0.150 HD
BRANCH  17  21
ATOM     21  CA  LEU A   5      31.777   2.533  11.290  0.00  0.00    +0.149 C 
BRANCH  21  24
ATOM     22  C   GLY A   4      30.289   3.091  13.146  0.00  0.00    +0.243 C 
ATOM     23  O   GLY A   4      31.200   3.591  13.809  0.00  0.00    -0.273 OA
ATOM     24  N   LEU A   5      30.472   2.548  11.944  0.00  0.00    -0.297 N 
ATOM     25  H   LEU A   5      29.659   2.121  11.456  0.00  0.00    +0.150 HD
BRANCH  22  26
ATOM     26  CA  GLY A   4      28.877   3.053  13.695  0.00  0.00    +0.176 C 
BRANCH  26  29
ATOM     27  C   GLY A   3      28.074   5.339  13.768  0.00  0.00    +0.243 C 
ATOM     28  O   GLY A   3      28.796   5.618  14.733  0.00  0.00    -0.273 OA
ATOM     29  N   GLY A   4      28.049   4.138  13.195  0.00  0.00    -0.295 N 
ATOM     30  H   GLY A   4      27.428   3.973  12.377  0.00  0.00    +0.150 HD
BRANCH  27  31
ATOM     31  CA  GLY A   3      27.160   6.386  13.165  0.00  0.00    +0.176 C 
BRANCH  31  34
ATOM     32  C   GLN A   2      26.641   7.733  15.091  0.00  0.00    +0.241 C 
ATOM     33  O   GLN A   2      25.962   6.829  15.584  0.00  0.00    -0.273 OA
ATOM     34  N   GLY A   3      27.254   7.620  13.920  0.00  0.00    -0.295 N 
ATOM     35  H   GLY A   3      27.803   8.418  13.543  0.00  0.00    +0.150 HD
BRANCH  32  36
ATOM     36  CA  GLN A   2      26.812   9.057  15.814  0.00  0.00    +0.149 C 
BRANCH  36  38
ATOM     37  C   LYS A   1      24.582  10.003  16.031  0.00  0.00    +0.238 C 
ATOM     38  N   GLN A   2      25.606   9.354  16.566  0.00  0.00    -0.297 N 
ATOM     39  H   GLN A   2      25.544   9.047  17.558  0.00  0.00    +0.150 HD
ATOM     40  O   LYS A   1      24.561  10.404  14.870  0.00  0.00    -0.274 OA
BRANCH  37  41
ATOM     41  CA  LYS A   1      23.402  10.218  16.952  0.00  0.00    +0.145 C 
BRANCH  41  42
ATOM     42  N   LYS A   1      22.682  11.432  16.609  0.00  0.00    -0.238 NA
ATOM     43  H   LYS A   1      22.457  11.640  15.615  0.00  0.00    +0.142 HD
ENDBRANCH  41  42
BRANCH  41  44
ATOM     44  CB  LYS A   1      22.468   9.007  16.871  0.00  0.00    +0.026 C 
BRANCH  44  45
ATOM     45  CG  LYS A   1      21.764   8.863  15.538  0.00  0.00    -0.000 C 
BRANCH  45  46
ATOM     46  CD  LYS A   1      21.147   7.479  15.401  0.00  0.00    -0.024 C 
BRANCH  46  47
ATOM     47  CE  LYS A   1      22.221   6.448  15.101  0.00  0.00    -0.086 C 
BRANCH  47  48
ATOM     48  NZ  LYS A   1      22.835   6.682  13.764  0.00  0.00    +0.380 N 
ATOM     49  HZ1 LYS A   1      23.267   7.628  13.743  0.00  0.00    -0.089 HD
ATOM     50  HZ2 LYS A   1      23.565   5.962  13.588  0.00  0.00    -0.089 HD
ATOM     51  HZ3 LYS A   1      22.100   6.619  13.031  0.00  0.00    -0.089 HD
ENDBRANCH  47  48
ENDBRANCH  46  47
ENDBRANCH  45  46
ENDBRANCH  44  45
ENDBRANCH  41  44
ENDBRANCH  37  41
ENDBRANCH  36  38
BRANCH  36  52
ATOM     52  CB  GLN A   2      28.005   8.969  16.763  0.00  0.00    +0.039 C 
BRANCH  52  53
ATOM     53  CG  GLN A   2      29.337   8.747  16.077  0.00  0.00    +0.087 C 
BRANCH  53  54
ATOM     54  CD  GLN A   2      30.495   8.779  17.052  0.00  0.00    +0.219 C 
ATOM     55  OE1 GLN A   2      30.626   7.903  17.898  0.00  0.00    -0.275 OA
ATOM     56  NE2 GLN A   2      31.338   9.801  16.943  0.00  0.00    -0.329 N 
ATOM     57 HE21 GLN A   2      32.147   9.879  17.592  0.00  0.00    +0.145 HD
ATOM     58 HE22 GLN A   2      31.188  10.523  16.209  0.00  0.00    +0.145 HD
ENDBRANCH  53  54
ENDBRANCH  52  53
ENDBRANCH  36  52
ENDBRANCH  32  36
ENDBRANCH  31  34
ENDBRANCH  27  31
ENDBRANCH  26  29
ENDBRANCH  22  26
ENDBRANCH  21  24
BRANCH  21  59
ATOM     59  CB  LEU A   5      31.768   1.582  10.092  0.00  0.00    +0.029 C 
BRANCH  59  60
ATOM     60  CG  LEU A   5      31.562   0.095  10.383  0.00  0.00    +0.002 C 
ATOM     61  CD2 LEU A   5      32.673  -0.414  11.286  0.00  0.00    +0.000 C 
ATOM     62  CD1 LEU A   5      31.539  -0.679   9.073  0.00  0.00    +0.000 C 
ENDBRANCH  59  60
ENDBRANCH  21  59
ENDBRANCH  17  21
ENDBRANCH  16  19
BRANCH  16  63
ATOM     63  CB  VAL A   6      30.541   6.143   8.322  0.00  0.00    +0.027 C 
ATOM     64  CG2 VAL A   6      30.671   7.599   7.886  0.00  0.00    +0.002 C 
ATOM     65  CG1 VAL A   6      31.118   5.218   7.260  0.00  0.00    +0.002 C 
ENDBRANCH  16  63
ENDBRANCH  12  16
ENDBRANCH  11  13
BRANCH  11  66
ATOM     66  CB  LYS A   7      32.005   8.234  13.767  0.00  0.00    +0.029 C 
BRANCH  66  67
ATOM     67  CG  LYS A   7      32.492   6.868  14.229  0.00  0.00    +0.000 C 
BRANCH  67  68
ATOM     68  CD  LYS A   7      33.569   6.998  15.284  0.00  0.00    -0.024 C 
BRANCH  68  69
ATOM     69  CE  LYS A   7      34.048   5.637  15.746  0.00  0.00    -0.086 C 
BRANCH  69  70
ATOM     70  NZ  LYS A   7      35.102   5.773  16.790  0.00  0.00    +0.380 N 
ATOM     71  HZ1 LYS A   7      34.715   6.288  17.607  0.00  0.00    -0.089 HD
ATOM     72  HZ2 LYS A   7      35.414   4.828  17.091  0.00  0.00    -0.089 HD
ATOM     73  HZ3 LYS A   7      35.910   6.298  16.399  0.00  0.00    -0.089 HD
ENDBRANCH  69  70
ENDBRANCH  68  69
ENDBRANCH  67  68
ENDBRANCH  66  67
ENDBRANCH  11  66
ENDBRANCH   7  11
ENDBRANCH   6   9
BRANCH   6  74
ATOM     74  CB  THR A   8      28.312  10.939   9.700  0.00  0.00    +0.137 C 
ATOM     75  CG2 THR A   8      29.466  10.995   8.709  0.00  0.00    +0.034 C 
BRANCH  74  76
ATOM     76  OG1 THR A   8      27.526   9.767   9.453  0.00  0.00    -0.382 OA
ATOM     77  HG1 THR A   8      27.182   9.791   8.525  0.00  0.00    +0.210 HD
ENDBRANCH  74  76
ENDBRANCH   6  74
ENDBRANCH   2   6
ENDBRANCH   1   4
BRANCH   1  78
ATOM     78  C   TRP A   9      25.023  12.961  12.573  0.00  0.00    +0.241 C 
ATOM     79  N   LYS A  10      23.941  12.242  12.848  0.00  0.00    -0.297 N 
ATOM     80  H   LYS A  10      23.995  11.498  13.573  0.00  0.00    +0.150 HD
ATOM     81  O   TRP A   9      25.037  13.865  11.735  0.00  0.00    -0.273 OA
BRANCH  79  82
ATOM     82  CA  LYS A  10      22.684  12.472  12.158  0.00  0.00    +0.149 C 
BRANCH  82  83
ATOM     83  C   LYS A  10      21.566  12.700  13.153  0.00  0.00    +0.241 C 
ATOM     84  O   LYS A  10      21.552  12.111  14.235  0.00  0.00    -0.273 OA
ATOM     85  N   THR A  11      20.631  13.566  12.782  0.00  0.00    -0.295 N 
ATOM     86  H   THR A  11      20.714  14.045  11.863  0.00  0.00    +0.150 HD
BRANCH  85  87
ATOM     87  CA  THR A  11      19.496  13.855  13.637  0.00  0.00    +0.176 C 
BRANCH  87  88
ATOM     88  C   THR A  11      18.414  12.847  13.299  0.00  0.00    +0.243 C 
ATOM     89  N   ARG A  12      17.987  12.106  14.313  0.00  0.00    -0.297 N 
ATOM     90  H   ARG A  12      18.386  12.264  15.261  0.00  0.00    +0.150 HD
ATOM     91  O   THR A  11      17.982  12.738  12.148  0.00  0.00    -0.273 OA
BRANCH  89  92
ATOM     92  CA  ARG A  12      16.977  11.081  14.131  0.00  0.00    +0.149 C 
BRANCH  92  93
ATOM     93  C   ARG A  12      15.850  11.217  15.133  0.00  0.00    +0.241 C 
ATOM     94  O   ARG A  12      16.017  11.809  16.196  0.00  0.00    -0.273 OA
ATOM     95  N   TRP A  13      14.703  10.649  14.783  0.00  0.00    -0.297 N 
ATOM     96  H   TRP A  13      14.642  10.162  13.866  0.00  0.00    +0.150 HD
BRANCH  95  97
ATOM     97  CA  TRP A  13      13.529  10.684  15.638  0.00  0.00    +0.153 C 
BRANCH  97  98
ATOM     98  C   TRP A  13      13.538   9.399  16.457  0.00  0.00    +0.241 C 
ATOM     99  N   PHE A  14      13.561   9.541  17.778  0.00  0.00    -0.298 N 
ATOM    100  H   PHE A  14      13.579  10.498  18.185  0.00  0.00    +0.150 HD
ATOM    101  O   TRP A  13      13.557   8.307  15.897  0.00  0.00    -0.273 OA
BRANCH  99 102
ATOM    102  CA  PHE A  14      13.561   8.391  18.669  0.00  0.00    +0.141 C 
BRANCH 102 103
ATOM    103  C   PHE A  14      12.214   8.226  19.349  0.00  0.00    +0.227 C 
ATOM    104  O   PHE A  14      11.551   9.201  19.696  0.00  0.00    -0.286 OA
ENDBRANCH 102 103
BRANCH 102 105
ATOM    105  CB  PHE A  14      14.626   8.541  19.761  0.00  0.00    +0.054 C 
BRANCH 105 106
ATOM    106  CG  PHE A  14      16.026   8.341  19.278  0.00  0.00    -0.020 A 
ATOM    107  CD2 PHE A  14      16.726   7.184  19.611  0.00  0.00    -0.004 A 
ATOM    108  CE2 PHE A  14      18.027   6.979  19.156  0.00  0.00    -0.000 A 
ATOM    109  CZ  PHE A  14      18.639   7.940  18.359  0.00  0.00    -0.000 A 
ATOM    110  CE1 PHE A  14      17.948   9.101  18.020  0.00  0.00    -0.000 A 
ATOM    111  CD1 PHE A  14      16.648   9.298  18.478  0.00  0.00    -0.004 A 
ENDBRANCH 105 106
ENDBRANCH 102 105
ENDBRANCH  99 102
ENDBRANCH  97  98
BRANCH  97 112
ATOM    112  CB  TRP A  13      12.271  10.761  14.765  0.00  0.00    +0.057 C 
BRANCH 112 113
ATOM    113  CG  TRP A  13      10.969  10.713  15.508  0.00  0.00    -0.002 A 
ATOM    114  CD2 TRP A  13      10.365  11.779  16.252  0.00  0.00    +0.013 A 
ATOM    115  CE2 TRP A  13       9.130  11.299  16.743  0.00  0.00    +0.056 A 
ATOM    116  CZ2 TRP A  13       8.271  12.090  17.518  0.00  0.00    +0.017 A 
ATOM    117  CH2 TRP A  13       8.669  13.375  17.794  0.00  0.00    +0.001 A 
ATOM    118  CZ3 TRP A  13       9.891  13.883  17.320  0.00  0.00    +0.000 A 
ATOM    119  NE1 TRP A  13       8.993  10.003  16.316  0.00  0.00    -0.352 N 
ATOM    120  HE1 TRP A  13       8.183   9.382  16.517  0.00  0.00    +0.166 HD
ATOM    121  CE3 TRP A  13      10.748  13.096  16.549  0.00  0.00    +0.001 A 
ATOM    122  CD1 TRP A  13      10.103   9.658  15.578  0.00  0.00    +0.068 A 
ENDBRANCH 112 113
ENDBRANCH  97 112
ENDBRANCH  95  97
ENDBRANCH  92  93
BRANCH  92 123
ATOM    123  CB  ARG A  12      17.629   9.706  14.276  0.00  0.00    +0.033 C 
BRANCH 123 124
ATOM    124  CG  ARG A  12      18.700   9.442  13.243  0.00  0.00    +0.045 C 
BRANCH 124 125
ATOM    125  CD  ARG A  12      18.082   9.262  11.864  0.00  0.00    +0.174 C 
BRANCH 125 126
ATOM    126  NE  ARG A  12      19.089   9.032  10.828  0.00  0.00    -0.265 N 
ATOM    127  HE  ARG A  12      19.593   8.122  10.834  0.00  0.00    +0.259 HD
ATOM    128  CZ  ARG A  12      19.403   9.910   9.879  0.00  0.00    +0.342 C 
ATOM    129  NH2 ARG A  12      18.795  11.091   9.824  0.00  0.00    -0.292 N 
ATOM    130 HH21 ARG A  12      18.068  11.335  10.526  0.00  0.00    +0.255 HD
ATOM    131 HH22 ARG A  12      19.047  11.771   9.079  0.00  0.00    +0.255 HD
ATOM    132  NH1 ARG A  12      20.319   9.602   8.972  0.00  0.00    -0.292 N 
ATOM    133 HH11 ARG A  12      20.791   8.676   9.003  0.00  0.00    +0.255 HD
ATOM    134 HH12 ARG A  12      20.566  10.287   8.229  0.00  0.00    +0.255 HD
ENDBRANCH 125 126
ENDBRANCH 124 125
ENDBRANCH 123 124
ENDBRANCH  92 123
ENDBRANCH  89  92
ENDBRANCH  87  88
BRANCH  87 135
ATOM    135  CB  THR A  11      18.967  15.274  13.407  0.00  0.00    +0.137 C 
ATOM    136  CG2 THR A  11      17.934  15.627  14.465  0.00  0.00    +0.034 C 
BRANCH 135 137
ATOM    137  OG1 THR A  11      20.058  16.199  13.493  0.00  0.00    -0.382 OA
ATOM    138  HG1 THR A  11      19.722  17.118  13.345  0.00  0.00    +0.210 HD
ENDBRANCH 135 137
ENDBRANCH  87 135
ENDBRANCH  85  87
ENDBRANCH  82  83
BRANCH  82 139
ATOM    139  CB  LYS A  10      22.340  11.270  11.274  0.00  0.00    +0.029 C 
BRANCH 139 140
ATOM    140  CG  LYS A  10      23.392  10.963  10.214  0.00  0.00    +0.000 C 
BRANCH 140 141
ATOM    141  CD  LYS A  10      23.460  12.071   9.165  0.00  0.00    -0.024 C 
BRANCH 141 142
ATOM    142  CE  LYS A  10      24.558  11.798   8.147  0.00  0.00    -0.086 C 
BRANCH 142 143
ATOM    143  NZ  LYS A  10      24.654  12.879   7.125  0.00  0.00    +0.380 N 
ATOM    144  HZ1 LYS A  10      24.864  13.782   7.596  0.00  0.00    -0.089 HD
ATOM    145  HZ2 LYS A  10      23.750  12.954   6.616  0.00  0.00    -0.089 HD
ATOM    146  HZ3 LYS A  10      25.414  12.652   6.452  0.00  0.00    -0.089 HD
ENDBRANCH 142 143
ENDBRANCH 141 142
ENDBRANCH 140 141
ENDBRANCH 139 140
ENDBRANCH  82 139
ENDBRANCH  79  82
ENDBRANCH   1  78
BRANCH   1 147
ATOM    147  CB  TRP A   9      26.637  13.739  14.315  0.00  0.00    +0.057 C 
BRANCH 147 148
ATOM    148  CG  TRP A   9      27.609  13.308  15.351  0.00  0.00    -0.002 A 
ATOM    149  CD2 TRP A   9      27.300  12.895  16.683  0.00  0.00    +0.013 A 
ATOM    150  CE3 TRP A   9      26.115  12.824  17.426  0.00  0.00    +0.001 A 
ATOM    151  CZ3 TRP A   9      26.175  12.358  18.729  0.00  0.00    +0.000 A 
ATOM    152  CH2 TRP A   9      27.395  11.961  19.303  0.00  0.00    +0.001 A 
ATOM    153  CZ2 TRP A   9      28.570  12.019  18.600  0.00  0.00    +0.017 A 
ATOM    154  CE2 TRP A   9      28.511  12.488  17.286  0.00  0.00    +0.056 A 
ATOM    155  NE1 TRP A   9      29.507  12.653  16.360  0.00  0.00    -0.352 N 
ATOM    156  HE1 TRP A   9      30.514  12.440  16.509  0.00  0.00    +0.166 HD
ATOM    157  CD1 TRP A   9      28.956  13.147  15.201  0.00  0.00    +0.068 A 
ENDBRANCH 147 148
ENDBRANCH   1 147
TORSDOF 63
REMARK  Name = ../refined-set-2016/1fao/1fao_pocket.pdb
REMARK  104 active torsions:
REMARK  status: ('A' for Active; 'I' for Inactive)
REMARK    1  A    between atoms: _1  and  _3
REMARK    2  A    between atoms: _3  and  _4
REMARK    3  A    between atoms: _3  and  _6
REMARK    4  A    between atoms: _6  and  _7
REMARK    5  A    between atoms: _7  and  _8
REMARK    6  A    between atoms: _8  and  _9
REMARK    7  A    between atoms: _9  and  _10
REMARK    8  A    between atoms: _14  and  _16
REMARK    9  A    between atoms: _16  and  _17
REMARK   10  A    between atoms: _16  and  _19
REMARK   11  A    between atoms: _19  and  _20
REMARK   12  A    between atoms: _20  and  _21
REMARK   13  A    between atoms: _26  and  _28
REMARK   14  A    between atoms: _28  and  _29
REMARK   15  A    between atoms: _31  and  _33
REMARK   16  A    between atoms: _33  and  _34
REMARK   17  A    between atoms: _36  and  _38
REMARK   18  A    between atoms: _38  and  _39
REMARK   19  A    between atoms: _38  and  _41
REMARK   20  A    between atoms: _41  and  _42
REMARK   21  A    between atoms: _45  and  _47
REMARK   22  A    between atoms: _47  and  _48
REMARK   23  A    between atoms: _47  and  _50
REMARK   24  A    between atoms: _53  and  _55
REMARK   25  A    between atoms: _55  and  _56
REMARK   26  A    between atoms: _55  and  _58
REMARK   27  A    between atoms: _58  and  _59
REMARK   28  A    between atoms: _59  and  _60
REMARK   29  A    between atoms: _60  and  _61
REMARK   30  A    between atoms: _61  and  _62
REMARK   31  A    between atoms: _66  and  _68
REMARK   32  A    between atoms: _68  and  _69
REMARK   33  A    between atoms: _68  and  _71
REMARK   34  A    between atoms: _71  and  _72
REMARK   35  A    between atoms: _75  and  _77
REMARK   36  A    between atoms: _77  and  _78
REMARK   37  A    between atoms: _77  and  _80
REMARK   38  A    between atoms: _80  and  _81
REMARK   39  A    between atoms: _91  and  _93
REMARK   40  A    between atoms: _93  and  _94
REMARK   41  A    between atoms: _93  and  _96
REMARK   42  A    between atoms: _96  and  _97
REMARK   43  A    between atoms: _97  and  _98
REMARK   44  A    between atoms: _98  and  _99
REMARK   45  A    between atoms: _99  and  _100
REMARK   46  A    between atoms: _104  and  _106
REMARK   47  A    between atoms: _106  and  _107
REMARK   48  A    between atoms: _106  and  _109
REMARK   49  A    between atoms: _109  and  _110
REMARK   50  A    between atoms: _113  and  _115
REMARK   51  A    between atoms: _115  and  _116
REMARK   52  A    between atoms: _115  and  _118
REMARK   53  A    between atoms: _118  and  _119
REMARK   54  A    between atoms: _119  and  _120
REMARK   55  A    between atoms: _120  and  _121
REMARK   56  A    between atoms: _130  and  _132
REMARK   57  A    between atoms: _132  and  _133
REMARK   58  A    between atoms: _132  and  _135
REMARK   59  A    between atoms: _135  and  _136
REMARK   60  A    between atoms: _146  and  _148
REMARK   61  A    between atoms: _148  and  _149
REMARK   62  A    between atoms: _148  and  _151
REMARK   63  A    between atoms: _151  and  _152
REMARK   64  A    between atoms: _158  and  _160
REMARK   65  A    between atoms: _160  and  _161
REMARK   66  A    between atoms: _160  and  _163
REMARK   67  A    between atoms: _163  and  _164
REMARK   68  A    between atoms: _169  and  _170
REMARK   69  A    between atoms: _172  and  _174
REMARK   70  A    between atoms: _174  and  _175
REMARK   71  A    between atoms: _174  and  _177
REMARK   72  A    between atoms: _177  and  _178
REMARK   73  A    between atoms: _184  and  _186
REMARK   74  A    between atoms: _186  and  _187
REMARK   75  A    between atoms: _186  and  _189
REMARK   76  A    between atoms: _189  and  _190
REMARK   77  A    between atoms: _190  and  _191
REMARK   78  A    between atoms: _191  and  _192
REMARK   79  A    between atoms: _192  and  _193
REMARK   80  A    between atoms: _197  and  _199
REMARK   81  A    between atoms: _199  and  _200
REMARK   82  A    between atoms: _199  and  _202
REMARK   83  A    between atoms: _202  and  _203
REMARK   84  A    between atoms: _206  and  _208
REMARK   85  A    between atoms: _208  and  _209
REMARK   86  A    between atoms: _208  and  _211
REMARK   87  A    between atoms: _211  and  _212
REMARK   88  A    between atoms: _212  and  _213
REMARK   89  A    between atoms: _213  and  _214
REMARK   90  A    between atoms: _223  and  _225
REMARK   91  A    between atoms: _225  and  _226
REMARK   92  A    between atoms: _225  and  _228
REMARK   93  A    between atoms: _228  and  _229
REMARK   94  A    between atoms: _229  and  _230
REMARK   95  A    between atoms: _230  and  _231
REMARK   96  A    between atoms: _240  and  _242
REMARK   97  A    between atoms: _242  and  _243
REMARK   98  A    between atoms: _242  and  _245
REMARK   99  A    between atoms: _245  and  _246
REMARK  100  A    between atoms: _252  and  _254
REMARK  101  A    between atoms: _254  and  _255
REMARK  102  A    between atoms: _254  and  _257
REMARK  103  A    between atoms: _257  and  _258
REMARK  104  A    between atoms: _263  and  _264
REMARK                            x       y       z     vdW  Elec       q    Type
REMARK                         _______ _______ _______ _____ _____    ______ ____
ROOT
ATOM      1  CA  PHE A   2      13.601   6.853  12.434  0.00  0.00    +0.153 C 
ENDROOT
BRANCH   1   2
ATOM      2  C   PHE A   2      14.351   8.008  11.779  0.00  0.00    +0.241 C 
ATOM      3  O   PHE A   2      14.949   8.829  12.469  0.00  0.00    -0.273 OA
ATOM      4  N   LYS A   3      14.312   8.072  10.451  0.00  0.00    -0.298 N 
ATOM      5  H   LYS A   3      13.806   7.338   9.916  0.00  0.00    +0.150 HD
BRANCH   4   6
ATOM      6  CA  LYS A   3      14.971   9.161   9.736  0.00  0.00    +0.137 C 
BRANCH   6   7
ATOM      7  C   LYS A   3      14.393  10.463  10.275  0.00  0.00    +0.227 C 
ATOM      8  O   LYS A   3      15.127  11.408  10.569  0.00  0.00    -0.286 OA
ENDBRANCH   6   7
BRANCH   6   9
ATOM      9  CB  LYS A   3      14.707   9.070   8.230  0.00  0.00    +0.028 C 
BRANCH   9  10
ATOM     10  CG  LYS A   3      15.424   7.927   7.539  0.00  0.00    -0.000 C 
BRANCH  10  11
ATOM     11  CD  LYS A   3      16.932   8.026   7.714  0.00  0.00    -0.024 C 
BRANCH  11  12
ATOM     12  CE  LYS A   3      17.640   6.902   6.969  0.00  0.00    -0.086 C 
BRANCH  12  13
ATOM     13  NZ  LYS A   3      19.096   6.837   7.269  0.00  0.00    +0.380 N 
ATOM     14  HZ1 LYS A   3      19.232   6.678   8.288  0.00  0.00    -0.089 HD
ATOM     15  HZ2 LYS A   3      19.546   7.733   6.994  0.00  0.00    -0.089 HD
ATOM     16  HZ3 LYS A   3      19.524   6.054   6.735  0.00  0.00    -0.089 HD
ENDBRANCH  12  13
ENDBRANCH  11  12
ENDBRANCH  10  11
ENDBRANCH   9  10
ENDBRANCH   6   9
ENDBRANCH   4   6
ENDBRANCH   1   2
BRANCH   1  18
ATOM     17  C   TYR A   1      14.569   5.607  14.312  0.00  0.00    +0.239 C 
ATOM     18  N   PHE A   2      14.028   6.711  13.818  0.00  0.00    -0.297 N 
ATOM     19  H   PHE A   2      13.901   7.523  14.456  0.00  0.00    +0.150 HD
ATOM     20  O   TYR A   1      14.764   4.581  13.653  0.00  0.00    -0.274 OA
BRANCH  17  21
ATOM     21  CA  TYR A   1      14.875   5.666  15.795  0.00  0.00    +0.149 C 
BRANCH  21  22
ATOM     22  N   TYR A   1      14.526   4.374  16.353  0.00  0.00    -0.238 NA
ATOM     23  H   TYR A   1      14.796   3.499  15.860  0.00  0.00    +0.142 HD
ENDBRANCH  21  22
BRANCH  21  24
ATOM     24  CB  TYR A   1      16.316   6.099  16.106  0.00  0.00    +0.053 C 
BRANCH  24  25
ATOM     25  CG  TYR A   1      17.452   5.248  15.613  0.00  0.00    -0.020 A 
ATOM     26  CD2 TYR A   1      18.094   4.370  16.479  0.00  0.00    -0.001 A 
ATOM     27  CE2 TYR A   1      19.204   3.654  16.084  0.00  0.00    +0.036 A 
ATOM     28  CZ  TYR A   1      19.694   3.797  14.803  0.00  0.00    +0.134 A 
ATOM     29  CE1 TYR A   1      19.073   4.662  13.902  0.00  0.00    +0.036 A 
ATOM     30  CD1 TYR A   1      17.951   5.383  14.316  0.00  0.00    -0.001 A 
BRANCH  28  31
ATOM     31  OH  TYR A   1      20.813   3.083  14.455  0.00  0.00    -0.506 OA
ATOM     32  HH  TYR A   1      21.050   3.281  13.515  0.00  0.00    +0.292 HD
ENDBRANCH  28  31
ENDBRANCH  24  25
ENDBRANCH  21  24
ENDBRANCH  17  21
ENDBRANCH   1  18
BRANCH   1  33
ATOM     33  CB  PHE A   2      12.105   7.178  12.390  0.00  0.00    +0.055 C 
BRANCH  33  34
ATOM     34  CG  PHE A   2      11.223   6.180  13.104  0.00  0.00    -0.020 A 
ATOM     35  CD2 PHE A   2      11.246   6.066  14.492  0.00  0.00    -0.004 A 
ATOM     36  CE2 PHE A   2      10.388   5.184  15.156  0.00  0.00    -0.000 A 
ATOM     37  CZ  PHE A   2       9.496   4.402  14.424  0.00  0.00    -0.000 A 
ATOM     38  CE1 PHE A   2       9.468   4.504  13.037  0.00  0.00    -0.000 A 
ATOM     39  CD1 PHE A   2      10.332   5.393  12.385  0.00  0.00    -0.004 A 
ENDBRANCH  33  34
ENDBRANCH   1  33
TORSDOF 16
REMARK  Name = ../refined-set-2016/1fao/1fao_pocket.pdb
REMARK  104 active torsions:
REMARK  status: ('A' for Active; 'I' for Inactive)
REMARK    1  A    between atoms: _1  and  _3
REMARK    2  A    between atoms: _3  and  _4
REMARK    3  A    between atoms: _3  and  _6
REMARK    4  A    between atoms: _6  and  _7
REMARK    5  A    between atoms: _7  and  _8
REMARK    6  A    between atoms: _8  and  _9
REMARK    7  A    between atoms: _9  and  _10
REMARK    8  A    between atoms: _14  and  _16
REMARK    9  A    between atoms: _16  and  _17
REMARK   10  A    between atoms: _16  and  _19
REMARK   11  A    between atoms: _19  and  _20
REMARK   12  A    between atoms: _20  and  _21
REMARK   13  A    between atoms: _26  and  _28
REMARK   14  A    between atoms: _28  and  _29
REMARK   15  A    between atoms: _31  and  _33
REMARK   16  A    between atoms: _33  and  _34
REMARK   17  A    between atoms: _36  and  _38
REMARK   18  A    between atoms: _38  and  _39
REMARK   19  A    between atoms: _38  and  _41
REMARK   20  A    between atoms: _41  and  _42
REMARK   21  A    between atoms: _45  and  _47
REMARK   22  A    between atoms: _47  and  _48
REMARK   23  A    between atoms: _47  and  _50
REMARK   24  A    between atoms: _53  and  _55
REMARK   25  A    between atoms: _55  and  _56
REMARK   26  A    between atoms: _55  and  _58
REMARK   27  A    between atoms: _58  and  _59
REMARK   28  A    between atoms: _59  and  _60
REMARK   29  A    between atoms: _60  and  _61
REMARK   30  A    between atoms: _61  and  _62
REMARK   31  A    between atoms: _66  and  _68
REMARK   32  A    between atoms: _68  and  _69
REMARK   33  A    between atoms: _68  and  _71
REMARK   34  A    between atoms: _71  and  _72
REMARK   35  A    between atoms: _75  and  _77
REMARK   36  A    between atoms: _77  and  _78
REMARK   37  A    between atoms: _77  and  _80
REMARK   38  A    between atoms: _80  and  _81
REMARK   39  A    between atoms: _91  and  _93
REMARK   40  A    between atoms: _93  and  _94
REMARK   41  A    between atoms: _93  and  _96
REMARK   42  A    between atoms: _96  and  _97
REMARK   43  A    between atoms: _97  and  _98
REMARK   44  A    between atoms: _98  and  _99
REMARK   45  A    between atoms: _99  and  _100
REMARK   46  A    between atoms: _104  and  _106
REMARK   47  A    between atoms: _106  and  _107
REMARK   48  A    between atoms: _106  and  _109
REMARK   49  A    between atoms: _109  and  _110
REMARK   50  A    between atoms: _113  and  _115
REMARK   51  A    between atoms: _115  and  _116
REMARK   52  A    between atoms: _115  and  _118
REMARK   53  A    between atoms: _118  and  _119
REMARK   54  A    between atoms: _119  and  _120
REMARK   55  A    between atoms: _120  and  _121
REMARK   56  A    between atoms: _130  and  _132
REMARK   57  A    between atoms: _132  and  _133
REMARK   58  A    between atoms: _132  and  _135
REMARK   59  A    between atoms: _135  and  _136
REMARK   60  A    between atoms: _146  and  _148
REMARK   61  A    between atoms: _148  and  _149
REMARK   62  A    between atoms: _148  and  _151
REMARK   63  A    between atoms: _151  and  _152
REMARK   64  A    between atoms: _158  and  _160
REMARK   65  A    between atoms: _160  and  _161
REMARK   66  A    between atoms: _160  and  _163
REMARK   67  A    between atoms: _163  and  _164
REMARK   68  A    between atoms: _169  and  _170
REMARK   69  A    between atoms: _172  and  _174
REMARK   70  A    between atoms: _174  and  _175
REMARK   71  A    between atoms: _174  and  _177
REMARK   72  A    between atoms: _177  and  _178
REMARK   73  A    between atoms: _184  and  _186
REMARK   74  A    between atoms: _186  and  _187
REMARK   75  A    between atoms: _186  and  _189
REMARK   76  A    between atoms: _189  and  _190
REMARK   77  A    between atoms: _190  and  _191
REMARK   78  A    between atoms: _191  and  _192
REMARK   79  A    between atoms: _192  and  _193
REMARK   80  A    between atoms: _197  and  _199
REMARK   81  A    between atoms: _199  and  _200
REMARK   82  A    between atoms: _199  and  _202
REMARK   83  A    between atoms: _202  and  _203
REMARK   84  A    between atoms: _206  and  _208
REMARK   85  A    between atoms: _208  and  _209
REMARK   86  A    between atoms: _208  and  _211
REMARK   87  A    between atoms: _211  and  _212
REMARK   88  A    between atoms: _212  and  _213
REMARK   89  A    between atoms: _213  and  _214
REMARK   90  A    between atoms: _223  and  _225
REMARK   91  A    between atoms: _225  and  _226
REMARK   92  A    between atoms: _225  and  _228
REMARK   93  A    between atoms: _228  and  _229
REMARK   94  A    between atoms: _229  and  _230
REMARK   95  A    between atoms: _230  and  _231
REMARK   96  A    between atoms: _240  and  _242
REMARK   97  A    between atoms: _242  and  _243
REMARK   98  A    between atoms: _242  and  _245
REMARK   99  A    between atoms: _245  and  _246
REMARK  100  A    between atoms: _252  and  _254
REMARK  101  A    between atoms: _254  and  _255
REMARK  102  A    between atoms: _254  and  _257
REMARK  103  A    between atoms: _257  and  _258
REMARK  104  A    between atoms: _263  and  _264
REMARK                            x       y       z     vdW  Elec       q    Type
REMARK                         _______ _______ _______ _____ _____    ______ ____
ROOT
ATOM      1  CA  ARG A   2      16.503   0.273  13.956  0.00  0.00    +0.137 C 
ENDROOT
BRANCH   1   3
ATOM      2  C   ILE A   1      16.377   1.251  11.750  0.00  0.00    +0.238 C 
ATOM      3  N   ARG A   2      16.111   1.331  13.048  0.00  0.00    -0.298 N 
ATOM      4  H   ARG A   2      15.614   2.166  13.418  0.00  0.00    +0.150 HD
ATOM      5  O   ILE A   1      16.932   0.281  11.234  0.00  0.00    -0.274 OA
BRANCH   2   6
ATOM      6  CA  ILE A   1      15.931   2.443  10.923  0.00  0.00    +0.145 C 
BRANCH   6   7
ATOM      7  N   ILE A   1      14.651   2.848  11.483  0.00  0.00    -0.238 NA
ATOM      8  H   ILE A   1      14.612   3.671  12.118  0.00  0.00    +0.142 HD
ENDBRANCH   6   7
BRANCH   6   9
ATOM      9  CB  ILE A   1      16.980   3.557  11.075  0.00  0.00    +0.025 C 
ATOM     10  CG2 ILE A   1      18.370   3.013  10.798  0.00  0.00    +0.002 C 
BRANCH   9  11
ATOM     11  CG1 ILE A   1      16.646   4.711  10.130  0.00  0.00    +0.002 C 
ATOM     12  CD1 ILE A   1      17.476   5.952  10.388  0.00  0.00    +0.000 C 
ENDBRANCH   9  11
ENDBRANCH   6   9
ENDBRANCH   2   6
ENDBRANCH   1   3
BRANCH   1  13
ATOM     13  C   ARG A   2      15.594   0.209  15.170  0.00  0.00    +0.227 C 
ATOM     14  O   ARG A   2      15.053   1.222  15.613  0.00  0.00    -0.286 OA
ENDBRANCH   1  13
BRANCH   1  15
ATOM     15  CB  ARG A   2      17.953   0.500  14.394  0.00  0.00    +0.031 C 
BRANCH  15  16
ATOM     16  CG  ARG A   2      18.610  -0.690  15.064  0.00  0.00    +0.045 C 
BRANCH  16  17
ATOM     17  CD  ARG A   2      20.120  -0.556  15.018  0.00  0.00    +0.174 C 
BRANCH  17  18
ATOM     18  NE  ARG A   2      20.788  -1.753  15.517  0.00  0.00    -0.265 N 
ATOM     19  HE  ARG A   2      20.210  -2.465  16.007  0.00  0.00    +0.259 HD
ATOM     20  CZ  ARG A   2      22.088  -1.991  15.385  0.00  0.00    +0.342 C 
ATOM     21  NH2 ARG A   2      22.611  -3.104  15.885  0.00  0.00    -0.292 N 
ATOM     22 HH21 ARG A   2      22.003  -3.788  16.379  0.00  0.00    +0.255 HD
ATOM     23 HH22 ARG A   2      23.629  -3.292  15.783  0.00  0.00    +0.255 HD
ATOM     24  NH1 ARG A   2      22.865  -1.116  14.763  0.00  0.00    -0.292 N 
ATOM     25 HH11 ARG A   2      23.883  -1.305  14.661  0.00  0.00    +0.255 HD
ATOM     26 HH12 ARG A   2      22.457  -0.241  14.377  0.00  0.00    +0.255 HD
ENDBRANCH  17  18
ENDBRANCH  16  17
ENDBRANCH  15  16
ENDBRANCH   1  15
TORSDOF 10
REMARK  Name = ../refined-set-2016/1fao/1fao_pocket.pdb
REMARK  104 active torsions:
REMARK  status: ('A' for Active; 'I' for Inactive)
REMARK    1  A    between atoms: _1  and  _3
REMARK    2  A    between atoms: _3  and  _4
REMARK    3  A    between atoms: _3  and  _6
REMARK    4  A    between atoms: _6  and  _7
REMARK    5  A    between atoms: _7  and  _8
REMARK    6  A    between atoms: _8  and  _9
REMARK    7  A    between atoms: _9  and  _10
REMARK    8  A    between atoms: _14  and  _16
REMARK    9  A    between atoms: _16  and  _17
REMARK   10  A    between atoms: _16  and  _19
REMARK   11  A    between atoms: _19  and  _20
REMARK   12  A    between atoms: _20  and  _21
REMARK   13  A    between atoms: _26  and  _28
REMARK   14  A    between atoms: _28  and  _29
REMARK   15  A    between atoms: _31  and  _33
REMARK   16  A    between atoms: _33  and  _34
REMARK   17  A    between atoms: _36  and  _38
REMARK   18  A    between atoms: _38  and  _39
REMARK   19  A    between atoms: _38  and  _41
REMARK   20  A    between atoms: _41  and  _42
REMARK   21  A    between atoms: _45  and  _47
REMARK   22  A    between atoms: _47  and  _48
REMARK   23  A    between atoms: _47  and  _50
REMARK   24  A    between atoms: _53  and  _55
REMARK   25  A    between atoms: _55  and  _56
REMARK   26  A    between atoms: _55  and  _58
REMARK   27  A    between atoms: _58  and  _59
REMARK   28  A    between atoms: _59  and  _60
REMARK   29  A    between atoms: _60  and  _61
REMARK   30  A    between atoms: _61  and  _62
REMARK   31  A    between atoms: _66  and  _68
REMARK   32  A    between atoms: _68  and  _69
REMARK   33  A    between atoms: _68  and  _71
REMARK   34  A    between atoms: _71  and  _72
REMARK   35  A    between atoms: _75  and  _77
REMARK   36  A    between atoms: _77  and  _78
REMARK   37  A    between atoms: _77  and  _80
REMARK   38  A    between atoms: _80  and  _81
REMARK   39  A    between atoms: _91  and  _93
REMARK   40  A    between atoms: _93  and  _94
REMARK   41  A    between atoms: _93  and  _96
REMARK   42  A    between atoms: _96  and  _97
REMARK   43  A    between atoms: _97  and  _98
REMARK   44  A    between atoms: _98  and  _99
REMARK   45  A    between atoms: _99  and  _100
REMARK   46  A    between atoms: _104  and  _106
REMARK   47  A    between atoms: _106  and  _107
REMARK   48  A    between atoms: _106  and  _109
REMARK   49  A    between atoms: _109  and  _110
REMARK   50  A    between atoms: _113  and  _115
REMARK   51  A    between atoms: _115  and  _116
REMARK   52  A    between atoms: _115  and  _118
REMARK   53  A    between atoms: _118  and  _119
REMARK   54  A    between atoms: _119  and  _120
REMARK   55  A    between atoms: _120  and  _121
REMARK   56  A    between atoms: _130  and  _132
REMARK   57  A    between atoms: _132  and  _133
REMARK   58  A    between atoms: _132  and  _135
REMARK   59  A    between atoms: _135  and  _136
REMARK   60  A    between atoms: _146  and  _148
REMARK   61  A    between atoms: _148  and  _149
REMARK   62  A    between atoms: _148  and  _151
REMARK   63  A    between atoms: _151  and  _152
REMARK   64  A    between atoms: _158  and  _160
REMARK   65  A    between atoms: _160  and  _161
REMARK   66  A    between atoms: _160  and  _163
REMARK   67  A    between atoms: _163  and  _164
REMARK   68  A    between atoms: _169  and  _170
REMARK   69  A    between atoms: _172  and  _174
REMARK   70  A    between atoms: _174  and  _175
REMARK   71  A    between atoms: _174  and  _177
REMARK   72  A    between atoms: _177  and  _178
REMARK   73  A    between atoms: _184  and  _186
REMARK   74  A    between atoms: _186  and  _187
REMARK   75  A    between atoms: _186  and  _189
REMARK   76  A    between atoms: _189  and  _190
REMARK   77  A    between atoms: _190  and  _191
REMARK   78  A    between atoms: _191  and  _192
REMARK   79  A    between atoms: _192  and  _193
REMARK   80  A    between atoms: _197  and  _199
REMARK   81  A    between atoms: _199  and  _200
REMARK   82  A    between atoms: _199  and  _202
REMARK   83  A    between atoms: _202  and  _203
REMARK   84  A    between atoms: _206  and  _208
REMARK   85  A    between atoms: _208  and  _209
REMARK   86  A    between atoms: _208  and  _211
REMARK   87  A    between atoms: _211  and  _212
REMARK   88  A    between atoms: _212  and  _213
REMARK   89  A    between atoms: _213  and  _214
REMARK   90  A    between atoms: _223  and  _225
REMARK   91  A    between atoms: _225  and  _226
REMARK   92  A    between atoms: _225  and  _228
REMARK   93  A    between atoms: _228  and  _229
REMARK   94  A    between atoms: _229  and  _230
REMARK   95  A    between atoms: _230  and  _231
REMARK   96  A    between atoms: _240  and  _242
REMARK   97  A    between atoms: _242  and  _243
REMARK   98  A    between atoms: _242  and  _245
REMARK   99  A    between atoms: _245  and  _246
REMARK  100  A    between atoms: _252  and  _254
REMARK  101  A    between atoms: _254  and  _255
REMARK  102  A    between atoms: _254  and  _257
REMARK  103  A    between atoms: _257  and  _258
REMARK  104  A    between atoms: _263  and  _264
REMARK                            x       y       z     vdW  Elec       q    Type
REMARK                         _______ _______ _______ _____ _____    ______ ____
ROOT
ATOM      1  NE  ARG A   1      26.352   2.107  16.869  0.00  0.00    -0.265 N 
ATOM      2  HE  ARG A   1      26.756   2.783  17.549  0.00  0.00    +0.259 HD
ATOM      3  CZ  ARG A   1      25.823   2.582  15.750  0.00  0.00    +0.342 C 
ATOM      4  NH2 ARG A   1      25.792   3.891  15.529  0.00  0.00    -0.292 N 
ATOM      5 HH21 ARG A   1      26.183   4.547  16.235  0.00  0.00    +0.255 HD
ATOM      6 HH22 ARG A   1      25.376   4.260  14.650  0.00  0.00    +0.255 HD
ATOM      7  NH1 ARG A   1      25.305   1.742  14.862  0.00  0.00    -0.292 N 
ATOM      8 HH11 ARG A   1      25.316   0.719  15.046  0.00  0.00    +0.255 HD
ATOM      9 HH12 ARG A   1      24.888   2.107  13.982  0.00  0.00    +0.255 HD
ENDROOT
BRANCH   1  10
ATOM     10  CD  ARG A   1      26.397   0.688  17.196  0.00  0.00    +0.174 C 
BRANCH  10  11
ATOM     11  CG  ARG A   1      26.999   0.428  18.554  0.00  0.00    +0.045 C 
BRANCH  11  12
ATOM     12  CB  ARG A   1      26.892  -1.048  18.895  0.00  0.00    +0.029 C 
BRANCH  12  13
ATOM     13  CA  ARG A   1      27.547  -1.440  20.217  0.00  0.00    +0.133 C 
BRANCH  13  14
ATOM     14  N   ARG A   1      27.210  -2.812  20.542  0.00  0.00    -0.239 NA
ATOM     15  H   ARG A   1      26.699  -3.027  21.422  0.00  0.00    +0.142 HD
ENDBRANCH  13  14
BRANCH  13  16
ATOM     16  C   ARG A   1      27.107  -0.465  21.287  0.00  0.00    +0.224 C 
ATOM     17  O   ARG A   1      26.155  -0.714  22.026  0.00  0.00    -0.287 OA
ENDBRANCH  13  16
ENDBRANCH  12  13
ENDBRANCH  11  12
ENDBRANCH  10  11
ENDBRANCH   1  10
TORSDOF 6
REMARK  Name = ../refined-set-2016/1fao/1fao_pocket.pdb
REMARK  104 active torsions:
REMARK  status: ('A' for Active; 'I' for Inactive)
REMARK    1  A    between atoms: _1  and  _3
REMARK    2  A    between atoms: _3  and  _4
REMARK    3  A    between atoms: _3  and  _6
REMARK    4  A    between atoms: _6  and  _7
REMARK    5  A    between atoms: _7  and  _8
REMARK    6  A    between atoms: _8  and  _9
REMARK    7  A    between atoms: _9  and  _10
REMARK    8  A    between atoms: _14  and  _16
REMARK    9  A    between atoms: _16  and  _17
REMARK   10  A    between atoms: _16  and  _19
REMARK   11  A    between atoms: _19  and  _20
REMARK   12  A    between atoms: _20  and  _21
REMARK   13  A    between atoms: _26  and  _28
REMARK   14  A    between atoms: _28  and  _29
REMARK   15  A    between atoms: _31  and  _33
REMARK   16  A    between atoms: _33  and  _34
REMARK   17  A    between atoms: _36  and  _38
REMARK   18  A    between atoms: _38  and  _39
REMARK   19  A    between atoms: _38  and  _41
REMARK   20  A    between atoms: _41  and  _42
REMARK   21  A    between atoms: _45  and  _47
REMARK   22  A    between atoms: _47  and  _48
REMARK   23  A    between atoms: _47  and  _50
REMARK   24  A    between atoms: _53  and  _55
REMARK   25  A    between atoms: _55  and  _56
REMARK   26  A    between atoms: _55  and  _58
REMARK   27  A    between atoms: _58  and  _59
REMARK   28  A    between atoms: _59  and  _60
REMARK   29  A    between atoms: _60  and  _61
REMARK   30  A    between atoms: _61  and  _62
REMARK   31  A    between atoms: _66  and  _68
REMARK   32  A    between atoms: _68  and  _69
REMARK   33  A    between atoms: _68  and  _71
REMARK   34  A    between atoms: _71  and  _72
REMARK   35  A    between atoms: _75  and  _77
REMARK   36  A    between atoms: _77  and  _78
REMARK   37  A    between atoms: _77  and  _80
REMARK   38  A    between atoms: _80  and  _81
REMARK   39  A    between atoms: _91  and  _93
REMARK   40  A    between atoms: _93  and  _94
REMARK   41  A    between atoms: _93  and  _96
REMARK   42  A    between atoms: _96  and  _97
REMARK   43  A    between atoms: _97  and  _98
REMARK   44  A    between atoms: _98  and  _99
REMARK   45  A    between atoms: _99  and  _100
REMARK   46  A    between atoms: _104  and  _106
REMARK   47  A    between atoms: _106  and  _107
REMARK   48  A    between atoms: _106  and  _109
REMARK   49  A    between atoms: _109  and  _110
REMARK   50  A    between atoms: _113  and  _115
REMARK   51  A    between atoms: _115  and  _116
REMARK   52  A    between atoms: _115  and  _118
REMARK   53  A    between atoms: _118  and  _119
REMARK   54  A    between atoms: _119  and  _120
REMARK   55  A    between atoms: _120  and  _121
REMARK   56  A    between atoms: _130  and  _132
REMARK   57  A    between atoms: _132  and  _133
REMARK   58  A    between atoms: _132  and  _135
REMARK   59  A    between atoms: _135  and  _136
REMARK   60  A    between atoms: _146  and  _148
REMARK   61  A    between atoms: _148  and  _149
REMARK   62  A    between atoms: _148  and  _151
REMARK   63  A    between atoms: _151  and  _152
REMARK   64  A    between atoms: _158  and  _160
REMARK   65  A    between atoms: _160  and  _161
REMARK   66  A    between atoms: _160  and  _163
REMARK   67  A    between atoms: _163  and  _164
REMARK   68  A    between atoms: _169  and  _170
REMARK   69  A    between atoms: _172  and  _174
REMARK   70  A    between atoms: _174  and  _175
REMARK   71  A    between atoms: _174  and  _177
REMARK   72  A    between atoms: _177  and  _178
REMARK   73  A    between atoms: _184  and  _186
REMARK   74  A    between atoms: _186  and  _187
REMARK   75  A    between atoms: _186  and  _189
REMARK   76  A    between atoms: _189  and  _190
REMARK   77  A    between atoms: _190  and  _191
REMARK   78  A    between atoms: _191  and  _192
REMARK   79  A    between atoms: _192  and  _193
REMARK   80  A    between atoms: _197  and  _199
REMARK   81  A    between atoms: _199  and  _200
REMARK   82  A    between atoms: _199  and  _202
REMARK   83  A    between atoms: _202  and  _203
REMARK   84  A    between atoms: _206  and  _208
REMARK   85  A    between atoms: _208  and  _209
REMARK   86  A    between atoms: _208  and  _211
REMARK   87  A    between atoms: _211  and  _212
REMARK   88  A    between atoms: _212  and  _213
REMARK   89  A    between atoms: _213  and  _214
REMARK   90  A    between atoms: _223  and  _225
REMARK   91  A    between atoms: _225  and  _226
REMARK   92  A    between atoms: _225  and  _228
REMARK   93  A    between atoms: _228  and  _229
REMARK   94  A    between atoms: _229  and  _230
REMARK   95  A    between atoms: _230  and  _231
REMARK   96  A    between atoms: _240  and  _242
REMARK   97  A    between atoms: _242  and  _243
REMARK   98  A    between atoms: _242  and  _245
REMARK   99  A    between atoms: _245  and  _246
REMARK  100  A    between atoms: _252  and  _254
REMARK  101  A    between atoms: _254  and  _255
REMARK  102  A    between atoms: _254  and  _257
REMARK  103  A    between atoms: _257  and  _258
REMARK  104  A    between atoms: _263  and  _264
REMARK                            x       y       z     vdW  Elec       q    Type
REMARK                         _______ _______ _______ _____ _____    ______ ____
ROOT
ATOM      1  C   PHE A   1      25.541   5.714  21.571  0.00  0.00    +0.239 C 
ATOM      2  O   PHE A   1      25.401   5.838  22.784  0.00  0.00    -0.274 OA
ATOM      3  N   TYR A   2      25.974   6.695  20.785  0.00  0.00    -0.298 N 
ATOM      4  H   TYR A   2      26.098   6.521  19.767  0.00  0.00    +0.150 HD
ENDROOT
BRANCH   1   5
ATOM      5  CA  PHE A   1      25.245   4.391  20.894  0.00  0.00    +0.149 C 
BRANCH   5   6
ATOM      6  N   PHE A   1      25.796   3.306  21.677  0.00  0.00    -0.238 NA
ATOM      7  H   PHE A   1      25.239   2.899  22.455  0.00  0.00    +0.142 HD
ENDBRANCH   5   6
BRANCH   5   8
ATOM      8  CB  PHE A   1      23.737   4.215  20.721  0.00  0.00    +0.053 C 
BRANCH   8   9
ATOM      9  CG  PHE A   1      23.366   3.045  19.859  0.00  0.00    -0.020 A 
ATOM     10  CD2 PHE A   1      23.382   1.751  20.373  0.00  0.00    -0.004 A 
ATOM     11  CE2 PHE A   1      23.070   0.661  19.561  0.00  0.00    -0.000 A 
ATOM     12  CZ  PHE A   1      22.741   0.864  18.224  0.00  0.00    -0.000 A 
ATOM     13  CE1 PHE A   1      22.721   2.152  17.698  0.00  0.00    -0.000 A 
ATOM     14  CD1 PHE A   1      23.034   3.236  18.519  0.00  0.00    -0.004 A 
ENDBRANCH   8   9
ENDBRANCH   5   8
ENDBRANCH   1   5
BRANCH   3  15
ATOM     15  CA  TYR A   2      26.276   8.009  21.331  0.00  0.00    +0.141 C 
BRANCH  15  16
ATOM     16  C   TYR A   2      25.215   8.952  20.803  0.00  0.00    +0.227 C 
ATOM     17  O   TYR A   2      25.070   9.122  19.591  0.00  0.00    -0.286 OA
ENDBRANCH  15  16
BRANCH  15  18
ATOM     18  CB  TYR A   2      27.677   8.449  20.905  0.00  0.00    +0.054 C 
BRANCH  18  19
ATOM     19  CG  TYR A   2      28.742   7.467  21.341  0.00  0.00    -0.020 A 
ATOM     20  CD2 TYR A   2      29.237   7.487  22.643  0.00  0.00    -0.001 A 
ATOM     21  CE2 TYR A   2      30.173   6.548  23.073  0.00  0.00    +0.036 A 
ATOM     22  CZ  TYR A   2      30.624   5.577  22.194  0.00  0.00    +0.134 A 
ATOM     23  CE1 TYR A   2      30.151   5.538  20.890  0.00  0.00    +0.036 A 
ATOM     24  CD1 TYR A   2      29.212   6.483  20.471  0.00  0.00    -0.001 A 
BRANCH  22  25
ATOM     25  OH  TYR A   2      31.537   4.639  22.627  0.00  0.00    -0.506 OA
ATOM     26  HH  TYR A   2      31.754   4.023  21.883  0.00  0.00    +0.292 HD
ENDBRANCH  22  25
ENDBRANCH  18  19
ENDBRANCH  15  18
ENDBRANCH   3  15
TORSDOF 9
REMARK  Name = ../refined-set-2016/1fao/1fao_pocket.pdb
REMARK  104 active torsions:
REMARK  status: ('A' for Active; 'I' for Inactive)
REMARK    1  A    between atoms: _1  and  _3
REMARK    2  A    between atoms: _3  and  _4
REMARK    3  A    between atoms: _3  and  _6
REMARK    4  A    between atoms: _6  and  _7
REMARK    5  A    between atoms: _7  and  _8
REMARK    6  A    between atoms: _8  and  _9
REMARK    7  A    between atoms: _9  and  _10
REMARK    8  A    between atoms: _14  and  _16
REMARK    9  A    between atoms: _16  and  _17
REMARK   10  A    between atoms: _16  and  _19
REMARK   11  A    between atoms: _19  and  _20
REMARK   12  A    between atoms: _20  and  _21
REMARK   13  A    between atoms: _26  and  _28
REMARK   14  A    between atoms: _28  and  _29
REMARK   15  A    between atoms: _31  and  _33
REMARK   16  A    between atoms: _33  and  _34
REMARK   17  A    between atoms: _36  and  _38
REMARK   18  A    between atoms: _38  and  _39
REMARK   19  A    between atoms: _38  and  _41
REMARK   20  A    between atoms: _41  and  _42
REMARK   21  A    between atoms: _45  and  _47
REMARK   22  A    between atoms: _47  and  _48
REMARK   23  A    between atoms: _47  and  _50
REMARK   24  A    between atoms: _53  and  _55
REMARK   25  A    between atoms: _55  and  _56
REMARK   26  A    between atoms: _55  and  _58
REMARK   27  A    between atoms: _58  and  _59
REMARK   28  A    between atoms: _59  and  _60
REMARK   29  A    between atoms: _60  and  _61
REMARK   30  A    between atoms: _61  and  _62
REMARK   31  A    between atoms: _66  and  _68
REMARK   32  A    between atoms: _68  and  _69
REMARK   33  A    between atoms: _68  and  _71
REMARK   34  A    between atoms: _71  and  _72
REMARK   35  A    between atoms: _75  and  _77
REMARK   36  A    between atoms: _77  and  _78
REMARK   37  A    between atoms: _77  and  _80
REMARK   38  A    between atoms: _80  and  _81
REMARK   39  A    between atoms: _91  and  _93
REMARK   40  A    between atoms: _93  and  _94
REMARK   41  A    between atoms: _93  and  _96
REMARK   42  A    between atoms: _96  and  _97
REMARK   43  A    between atoms: _97  and  _98
REMARK   44  A    between atoms: _98  and  _99
REMARK   45  A    between atoms: _99  and  _100
REMARK   46  A    between atoms: _104  and  _106
REMARK   47  A    between atoms: _106  and  _107
REMARK   48  A    between atoms: _106  and  _109
REMARK   49  A    between atoms: _109  and  _110
REMARK   50  A    between atoms: _113  and  _115
REMARK   51  A    between atoms: _115  and  _116
REMARK   52  A    between atoms: _115  and  _118
REMARK   53  A    between atoms: _118  and  _119
REMARK   54  A    between atoms: _119  and  _120
REMARK   55  A    between atoms: _120  and  _121
REMARK   56  A    between atoms: _130  and  _132
REMARK   57  A    between atoms: _132  and  _133
REMARK   58  A    between atoms: _132  and  _135
REMARK   59  A    between atoms: _135  and  _136
REMARK   60  A    between atoms: _146  and  _148
REMARK   61  A    between atoms: _148  and  _149
REMARK   62  A    between atoms: _148  and  _151
REMARK   63  A    between atoms: _151  and  _152
REMARK   64  A    between atoms: _158  and  _160
REMARK   65  A    between atoms: _160  and  _161
REMARK   66  A    between atoms: _160  and  _163
REMARK   67  A    between atoms: _163  and  _164
REMARK   68  A    between atoms: _169  and  _170
REMARK   69  A    between atoms: _172  and  _174
REMARK   70  A    between atoms: _174  and  _175
REMARK   71  A    between atoms: _174  and  _177
REMARK   72  A    between atoms: _177  and  _178
REMARK   73  A    between atoms: _184  and  _186
REMARK   74  A    between atoms: _186  and  _187
REMARK   75  A    between atoms: _186  and  _189
REMARK   76  A    between atoms: _189  and  _190
REMARK   77  A    between atoms: _190  and  _191
REMARK   78  A    between atoms: _191  and  _192
REMARK   79  A    between atoms: _192  and  _193
REMARK   80  A    between atoms: _197  and  _199
REMARK   81  A    between atoms: _199  and  _200
REMARK   82  A    between atoms: _199  and  _202
REMARK   83  A    between atoms: _202  and  _203
REMARK   84  A    between atoms: _206  and  _208
REMARK   85  A    between atoms: _208  and  _209
REMARK   86  A    between atoms: _208  and  _211
REMARK   87  A    between atoms: _211  and  _212
REMARK   88  A    between atoms: _212  and  _213
REMARK   89  A    between atoms: _213  and  _214
REMARK   90  A    between atoms: _223  and  _225
REMARK   91  A    between atoms: _225  and  _226
REMARK   92  A    between atoms: _225  and  _228
REMARK   93  A    between atoms: _228  and  _229
REMARK   94  A    between atoms: _229  and  _230
REMARK   95  A    between atoms: _230  and  _231
REMARK   96  A    between atoms: _240  and  _242
REMARK   97  A    between atoms: _242  and  _243
REMARK   98  A    between atoms: _242  and  _245
REMARK   99  A    between atoms: _245  and  _246
REMARK  100  A    between atoms: _252  and  _254
REMARK  101  A    between atoms: _254  and  _255
REMARK  102  A    between atoms: _254  and  _257
REMARK  103  A    between atoms: _257  and  _258
REMARK  104  A    between atoms: _263  and  _264
REMARK                            x       y       z     vdW  Elec       q    Type
REMARK                         _______ _______ _______ _____ _____    ______ ____
ROOT
ATOM      1  O   HOH     1      24.325   8.701  12.712  0.00  0.00    +0.000 OA
ENDROOT
TORSDOF 0
REMARK  Name = ../refined-set-2016/1fao/1fao_pocket.pdb
REMARK  104 active torsions:
REMARK  status: ('A' for Active; 'I' for Inactive)
REMARK    1  A    between atoms: _1  and  _3
REMARK    2  A    between atoms: _3  and  _4
REMARK    3  A    between atoms: _3  and  _6
REMARK    4  A    between atoms: _6  and  _7
REMARK    5  A    between atoms: _7  and  _8
REMARK    6  A    between atoms: _8  and  _9
REMARK    7  A    between atoms: _9  and  _10
REMARK    8  A    between atoms: _14  and  _16
REMARK    9  A    between atoms: _16  and  _17
REMARK   10  A    between atoms: _16  and  _19
REMARK   11  A    between atoms: _19  and  _20
REMARK   12  A    between atoms: _20  and  _21
REMARK   13  A    between atoms: _26  and  _28
REMARK   14  A    between atoms: _28  and  _29
REMARK   15  A    between atoms: _31  and  _33
REMARK   16  A    between atoms: _33  and  _34
REMARK   17  A    between atoms: _36  and  _38
REMARK   18  A    between atoms: _38  and  _39
REMARK   19  A    between atoms: _38  and  _41
REMARK   20  A    between atoms: _41  and  _42
REMARK   21  A    between atoms: _45  and  _47
REMARK   22  A    between atoms: _47  and  _48
REMARK   23  A    between atoms: _47  and  _50
REMARK   24  A    between atoms: _53  and  _55
REMARK   25  A    between atoms: _55  and  _56
REMARK   26  A    between atoms: _55  and  _58
REMARK   27  A    between atoms: _58  and  _59
REMARK   28  A    between atoms: _59  and  _60
REMARK   29  A    between atoms: _60  and  _61
REMARK   30  A    between atoms: _61  and  _62
REMARK   31  A    between atoms: _66  and  _68
REMARK   32  A    between atoms: _68  and  _69
REMARK   33  A    between atoms: _68  and  _71
REMARK   34  A    between atoms: _71  and  _72
REMARK   35  A    between atoms: _75  and  _77
REMARK   36  A    between atoms: _77  and  _78
REMARK   37  A    between atoms: _77  and  _80
REMARK   38  A    between atoms: _80  and  _81
REMARK   39  A    between atoms: _91  and  _93
REMARK   40  A    between atoms: _93  and  _94
REMARK   41  A    between atoms: _93  and  _96
REMARK   42  A    between atoms: _96  and  _97
REMARK   43  A    between atoms: _97  and  _98
REMARK   44  A    between atoms: _98  and  _99
REMARK   45  A    between atoms: _99  and  _100
REMARK   46  A    between atoms: _104  and  _106
REMARK   47  A    between atoms: _106  and  _107
REMARK   48  A    between atoms: _106  and  _109
REMARK   49  A    between atoms: _109  and  _110
REMARK   50  A    between atoms: _113  and  _115
REMARK   51  A    between atoms: _115  and  _116
REMARK   52  A    between atoms: _115  and  _118
REMARK   53  A    between atoms: _118  and  _119
REMARK   54  A    between atoms: _119  and  _120
REMARK   55  A    between atoms: _120  and  _121
REMARK   56  A    between atoms: _130  and  _132
REMARK   57  A    between atoms: _132  and  _133
REMARK   58  A    between atoms: _132  and  _135
REMARK   59  A    between atoms: _135  and  _136
REMARK   60  A    between atoms: _146  and  _148
REMARK   61  A    between atoms: _148  and  _149
REMARK   62  A    between atoms: _148  and  _151
REMARK   63  A    between atoms: _151  and  _152
REMARK   64  A    between atoms: _158  and  _160
REMARK   65  A    between atoms: _160  and  _161
REMARK   66  A    between atoms: _160  and  _163
REMARK   67  A    between atoms: _163  and  _164
REMARK   68  A    between atoms: _169  and  _170
REMARK   69  A    between atoms: _172  and  _174
REMARK   70  A    between atoms: _174  and  _175
REMARK   71  A    between atoms: _174  and  _177
REMARK   72  A    between atoms: _177  and  _178
REMARK   73  A    between atoms: _184  and  _186
REMARK   74  A    between atoms: _186  and  _187
REMARK   75  A    between atoms: _186  and  _189
REMARK   76  A    between atoms: _189  and  _190
REMARK   77  A    between atoms: _190  and  _191
REMARK   78  A    between atoms: _191  and  _192
REMARK   79  A    between atoms: _192  and  _193
REMARK   80  A    between atoms: _197  and  _199
REMARK   81  A    between atoms: _199  and  _200
REMARK   82  A    between atoms: _199  and  _202
REMARK   83  A    between atoms: _202  and  _203
REMARK   84  A    between atoms: _206  and  _208
REMARK   85  A    between atoms: _208  and  _209
REMARK   86  A    between atoms: _208  and  _211
REMARK   87  A    between atoms: _211  and  _212
REMARK   88  A    between atoms: _212  and  _213
REMARK   89  A    between atoms: _213  and  _214
REMARK   90  A    between atoms: _223  and  _225
REMARK   91  A    between atoms: _225  and  _226
REMARK   92  A    between atoms: _225  and  _228
REMARK   93  A    between atoms: _228  and  _229
REMARK   94  A    between atoms: _229  and  _230
REMARK   95  A    between atoms: _230  and  _231
REMARK   96  A    between atoms: _240  and  _242
REMARK   97  A    between atoms: _242  and  _243
REMARK   98  A    between atoms: _242  and  _245
REMARK   99  A    between atoms: _245  and  _246
REMARK  100  A    between atoms: _252  and  _254
REMARK  101  A    between atoms: _254  and  _255
REMARK  102  A    between atoms: _254  and  _257
REMARK  103  A    between atoms: _257  and  _258
REMARK  104  A    between atoms: _263  and  _264
REMARK                            x       y       z     vdW  Elec       q    Type
REMARK                         _______ _______ _______ _____ _____    ______ ____
ROOT
ATOM      1  O   HOH     1      26.201   5.898  18.074  0.00  0.00    +0.000 OA
ENDROOT
TORSDOF 0
REMARK  Name = ../refined-set-2016/1fao/1fao_pocket.pdb
REMARK  104 active torsions:
REMARK  status: ('A' for Active; 'I' for Inactive)
REMARK    1  A    between atoms: _1  and  _3
REMARK    2  A    between atoms: _3  and  _4
REMARK    3  A    between atoms: _3  and  _6
REMARK    4  A    between atoms: _6  and  _7
REMARK    5  A    between atoms: _7  and  _8
REMARK    6  A    between atoms: _8  and  _9
REMARK    7  A    between atoms: _9  and  _10
REMARK    8  A    between atoms: _14  and  _16
REMARK    9  A    between atoms: _16  and  _17
REMARK   10  A    between atoms: _16  and  _19
REMARK   11  A    between atoms: _19  and  _20
REMARK   12  A    between atoms: _20  and  _21
REMARK   13  A    between atoms: _26  and  _28
REMARK   14  A    between atoms: _28  and  _29
REMARK   15  A    between atoms: _31  and  _33
REMARK   16  A    between atoms: _33  and  _34
REMARK   17  A    between atoms: _36  and  _38
REMARK   18  A    between atoms: _38  and  _39
REMARK   19  A    between atoms: _38  and  _41
REMARK   20  A    between atoms: _41  and  _42
REMARK   21  A    between atoms: _45  and  _47
REMARK   22  A    between atoms: _47  and  _48
REMARK   23  A    between atoms: _47  and  _50
REMARK   24  A    between atoms: _53  and  _55
REMARK   25  A    between atoms: _55  and  _56
REMARK   26  A    between atoms: _55  and  _58
REMARK   27  A    between atoms: _58  and  _59
REMARK   28  A    between atoms: _59  and  _60
REMARK   29  A    between atoms: _60  and  _61
REMARK   30  A    between atoms: _61  and  _62
REMARK   31  A    between atoms: _66  and  _68
REMARK   32  A    between atoms: _68  and  _69
REMARK   33  A    between atoms: _68  and  _71
REMARK   34  A    between atoms: _71  and  _72
REMARK   35  A    between atoms: _75  and  _77
REMARK   36  A    between atoms: _77  and  _78
REMARK   37  A    between atoms: _77  and  _80
REMARK   38  A    between atoms: _80  and  _81
REMARK   39  A    between atoms: _91  and  _93
REMARK   40  A    between atoms: _93  and  _94
REMARK   41  A    between atoms: _93  and  _96
REMARK   42  A    between atoms: _96  and  _97
REMARK   43  A    between atoms: _97  and  _98
REMARK   44  A    between atoms: _98  and  _99
REMARK   45  A    between atoms: _99  and  _100
REMARK   46  A    between atoms: _104  and  _106
REMARK   47  A    between atoms: _106  and  _107
REMARK   48  A    between atoms: _106  and  _109
REMARK   49  A    between atoms: _109  and  _110
REMARK   50  A    between atoms: _113  and  _115
REMARK   51  A    between atoms: _115  and  _116
REMARK   52  A    between atoms: _115  and  _118
REMARK   53  A    between atoms: _118  and  _119
REMARK   54  A    between atoms: _119  and  _120
REMARK   55  A    between atoms: _120  and  _121
REMARK   56  A    between atoms: _130  and  _132
REMARK   57  A    between atoms: _132  and  _133
REMARK   58  A    between atoms: _132  and  _135
REMARK   59  A    between atoms: _135  and  _136
REMARK   60  A    between atoms: _146  and  _148
REMARK   61  A    between atoms: _148  and  _149
REMARK   62  A    between atoms: _148  and  _151
REMARK   63  A    between atoms: _151  and  _152
REMARK   64  A    between atoms: _158  and  _160
REMARK   65  A    between atoms: _160  and  _161
REMARK   66  A    between atoms: _160  and  _163
REMARK   67  A    between atoms: _163  and  _164
REMARK   68  A    between atoms: _169  and  _170
REMARK   69  A    between atoms: _172  and  _174
REMARK   70  A    between atoms: _174  and  _175
REMARK   71  A    between atoms: _174  and  _177
REMARK   72  A    between atoms: _177  and  _178
REMARK   73  A    between atoms: _184  and  _186
REMARK   74  A    between atoms: _186  and  _187
REMARK   75  A    between atoms: _186  and  _189
REMARK   76  A    between atoms: _189  and  _190
REMARK   77  A    between atoms: _190  and  _191
REMARK   78  A    between atoms: _191  and  _192
REMARK   79  A    between atoms: _192  and  _193
REMARK   80  A    between atoms: _197  and  _199
REMARK   81  A    between atoms: _199  and  _200
REMARK   82  A    between atoms: _199  and  _202
REMARK   83  A    between atoms: _202  and  _203
REMARK   84  A    between atoms: _206  and  _208
REMARK   85  A    between atoms: _208  and  _209
REMARK   86  A    between atoms: _208  and  _211
REMARK   87  A    between atoms: _211  and  _212
REMARK   88  A    between atoms: _212  and  _213
REMARK   89  A    between atoms: _213  and  _214
REMARK   90  A    between atoms: _223  and  _225
REMARK   91  A    between atoms: _225  and  _226
REMARK   92  A    between atoms: _225  and  _228
REMARK   93  A    between atoms: _228  and  _229
REMARK   94  A    between atoms: _229  and  _230
REMARK   95  A    between atoms: _230  and  _231
REMARK   96  A    between atoms: _240  and  _242
REMARK   97  A    between atoms: _242  and  _243
REMARK   98  A    between atoms: _242  and  _245
REMARK   99  A    between atoms: _245  and  _246
REMARK  100  A    between atoms: _252  and  _254
REMARK  101  A    between atoms: _254  and  _255
REMARK  102  A    between atoms: _254  and  _257
REMARK  103  A    between atoms: _257  and  _258
REMARK  104  A    between atoms: _263  and  _264
REMARK                            x       y       z     vdW  Elec       q    Type
REMARK                         _______ _______ _______ _____ _____    ______ ____
ROOT
ATOM      1  O   HOH     1      27.775   3.954  17.850  0.00  0.00    +0.000 OA
ENDROOT
TORSDOF 0
REMARK  Name = ../refined-set-2016/1fao/1fao_pocket.pdb
REMARK  104 active torsions:
REMARK  status: ('A' for Active; 'I' for Inactive)
REMARK    1  A    between atoms: _1  and  _3
REMARK    2  A    between atoms: _3  and  _4
REMARK    3  A    between atoms: _3  and  _6
REMARK    4  A    between atoms: _6  and  _7
REMARK    5  A    between atoms: _7  and  _8
REMARK    6  A    between atoms: _8  and  _9
REMARK    7  A    between atoms: _9  and  _10
REMARK    8  A    between atoms: _14  and  _16
REMARK    9  A    between atoms: _16  and  _17
REMARK   10  A    between atoms: _16  and  _19
REMARK   11  A    between atoms: _19  and  _20
REMARK   12  A    between atoms: _20  and  _21
REMARK   13  A    between atoms: _26  and  _28
REMARK   14  A    between atoms: _28  and  _29
REMARK   15  A    between atoms: _31  and  _33
REMARK   16  A    between atoms: _33  and  _34
REMARK   17  A    between atoms: _36  and  _38
REMARK   18  A    between atoms: _38  and  _39
REMARK   19  A    between atoms: _38  and  _41
REMARK   20  A    between atoms: _41  and  _42
REMARK   21  A    between atoms: _45  and  _47
REMARK   22  A    between atoms: _47  and  _48
REMARK   23  A    between atoms: _47  and  _50
REMARK   24  A    between atoms: _53  and  _55
REMARK   25  A    between atoms: _55  and  _56
REMARK   26  A    between atoms: _55  and  _58
REMARK   27  A    between atoms: _58  and  _59
REMARK   28  A    between atoms: _59  and  _60
REMARK   29  A    between atoms: _60  and  _61
REMARK   30  A    between atoms: _61  and  _62
REMARK   31  A    between atoms: _66  and  _68
REMARK   32  A    between atoms: _68  and  _69
REMARK   33  A    between atoms: _68  and  _71
REMARK   34  A    between atoms: _71  and  _72
REMARK   35  A    between atoms: _75  and  _77
REMARK   36  A    between atoms: _77  and  _78
REMARK   37  A    between atoms: _77  and  _80
REMARK   38  A    between atoms: _80  and  _81
REMARK   39  A    between atoms: _91  and  _93
REMARK   40  A    between atoms: _93  and  _94
REMARK   41  A    between atoms: _93  and  _96
REMARK   42  A    between atoms: _96  and  _97
REMARK   43  A    between atoms: _97  and  _98
REMARK   44  A    between atoms: _98  and  _99
REMARK   45  A    between atoms: _99  and  _100
REMARK   46  A    between atoms: _104  and  _106
REMARK   47  A    between atoms: _106  and  _107
REMARK   48  A    between atoms: _106  and  _109
REMARK   49  A    between atoms: _109  and  _110
REMARK   50  A    between atoms: _113  and  _115
REMARK   51  A    between atoms: _115  and  _116
REMARK   52  A    between atoms: _115  and  _118
REMARK   53  A    between atoms: _118  and  _119
REMARK   54  A    between atoms: _119  and  _120
REMARK   55  A    between atoms: _120  and  _121
REMARK   56  A    between atoms: _130  and  _132
REMARK   57  A    between atoms: _132  and  _133
REMARK   58  A    between atoms: _132  and  _135
REMARK   59  A    between atoms: _135  and  _136
REMARK   60  A    between atoms: _146  and  _148
REMARK   61  A    between atoms: _148  and  _149
REMARK   62  A    between atoms: _148  and  _151
REMARK   63  A    between atoms: _151  and  _152
REMARK   64  A    between atoms: _158  and  _160
REMARK   65  A    between atoms: _160  and  _161
REMARK   66  A    between atoms: _160  and  _163
REMARK   67  A    between atoms: _163  and  _164
REMARK   68  A    between atoms: _169  and  _170
REMARK   69  A    between atoms: _172  and  _174
REMARK   70  A    between atoms: _174  and  _175
REMARK   71  A    between atoms: _174  and  _177
REMARK   72  A    between atoms: _177  and  _178
REMARK   73  A    between atoms: _184  and  _186
REMARK   74  A    between atoms: _186  and  _187
REMARK   75  A    between atoms: _186  and  _189
REMARK   76  A    between atoms: _189  and  _190
REMARK   77  A    between atoms: _190  and  _191
REMARK   78  A    between atoms: _191  and  _192
REMARK   79  A    between atoms: _192  and  _193
REMARK   80  A    between atoms: _197  and  _199
REMARK   81  A    between atoms: _199  and  _200
REMARK   82  A    between atoms: _199  and  _202
REMARK   83  A    between atoms: _202  and  _203
REMARK   84  A    between atoms: _206  and  _208
REMARK   85  A    between atoms: _208  and  _209
REMARK   86  A    between atoms: _208  and  _211
REMARK   87  A    between atoms: _211  and  _212
REMARK   88  A    between atoms: _212  and  _213
REMARK   89  A    between atoms: _213  and  _214
REMARK   90  A    between atoms: _223  and  _225
REMARK   91  A    between atoms: _225  and  _226
REMARK   92  A    between atoms: _225  and  _228
REMARK   93  A    between atoms: _228  and  _229
REMARK   94  A    between atoms: _229  and  _230
REMARK   95  A    between atoms: _230  and  _231
REMARK   96  A    between atoms: _240  and  _242
REMARK   97  A    between atoms: _242  and  _243
REMARK   98  A    between atoms: _242  and  _245
REMARK   99  A    between atoms: _245  and  _246
REMARK  100  A    between atoms: _252  and  _254
REMARK  101  A    between atoms: _254  and  _255
REMARK  102  A    between atoms: _254  and  _257
REMARK  103  A    between atoms: _257  and  _258
REMARK  104  A    between atoms: _263  and  _264
REMARK                            x       y       z     vdW  Elec       q    Type
REMARK                         _______ _______ _______ _____ _____    ______ ____
ROOT
ATOM      1  O   HOH     1      29.921   5.678  17.111  0.00  0.00    +0.000 OA
ENDROOT
TORSDOF 0
REMARK  Name = ../refined-set-2016/1fao/1fao_pocket.pdb
REMARK  104 active torsions:
REMARK  status: ('A' for Active; 'I' for Inactive)
REMARK    1  A    between atoms: _1  and  _3
REMARK    2  A    between atoms: _3  and  _4
REMARK    3  A    between atoms: _3  and  _6
REMARK    4  A    between atoms: _6  and  _7
REMARK    5  A    between atoms: _7  and  _8
REMARK    6  A    between atoms: _8  and  _9
REMARK    7  A    between atoms: _9  and  _10
REMARK    8  A    between atoms: _14  and  _16
REMARK    9  A    between atoms: _16  and  _17
REMARK   10  A    between atoms: _16  and  _19
REMARK   11  A    between atoms: _19  and  _20
REMARK   12  A    between atoms: _20  and  _21
REMARK   13  A    between atoms: _26  and  _28
REMARK   14  A    between atoms: _28  and  _29
REMARK   15  A    between atoms: _31  and  _33
REMARK   16  A    between atoms: _33  and  _34
REMARK   17  A    between atoms: _36  and  _38
REMARK   18  A    between atoms: _38  and  _39
REMARK   19  A    between atoms: _38  and  _41
REMARK   20  A    between atoms: _41  and  _42
REMARK   21  A    between atoms: _45  and  _47
REMARK   22  A    between atoms: _47  and  _48
REMARK   23  A    between atoms: _47  and  _50
REMARK   24  A    between atoms: _53  and  _55
REMARK   25  A    between atoms: _55  and  _56
REMARK   26  A    between atoms: _55  and  _58
REMARK   27  A    between atoms: _58  and  _59
REMARK   28  A    between atoms: _59  and  _60
REMARK   29  A    between atoms: _60  and  _61
REMARK   30  A    between atoms: _61  and  _62
REMARK   31  A    between atoms: _66  and  _68
REMARK   32  A    between atoms: _68  and  _69
REMARK   33  A    between atoms: _68  and  _71
REMARK   34  A    between atoms: _71  and  _72
REMARK   35  A    between atoms: _75  and  _77
REMARK   36  A    between atoms: _77  and  _78
REMARK   37  A    between atoms: _77  and  _80
REMARK   38  A    between atoms: _80  and  _81
REMARK   39  A    between atoms: _91  and  _93
REMARK   40  A    between atoms: _93  and  _94
REMARK   41  A    between atoms: _93  and  _96
REMARK   42  A    between atoms: _96  and  _97
REMARK   43  A    between atoms: _97  and  _98
REMARK   44  A    between atoms: _98  and  _99
REMARK   45  A    between atoms: _99  and  _100
REMARK   46  A    between atoms: _104  and  _106
REMARK   47  A    between atoms: _106  and  _107
REMARK   48  A    between atoms: _106  and  _109
REMARK   49  A    between atoms: _109  and  _110
REMARK   50  A    between atoms: _113  and  _115
REMARK   51  A    between atoms: _115  and  _116
REMARK   52  A    between atoms: _115  and  _118
REMARK   53  A    between atoms: _118  and  _119
REMARK   54  A    between atoms: _119  and  _120
REMARK   55  A    between atoms: _120  and  _121
REMARK   56  A    between atoms: _130  and  _132
REMARK   57  A    between atoms: _132  and  _133
REMARK   58  A    between atoms: _132  and  _135
REMARK   59  A    between atoms: _135  and  _136
REMARK   60  A    between atoms: _146  and  _148
REMARK   61  A    between atoms: _148  and  _149
REMARK   62  A    between atoms: _148  and  _151
REMARK   63  A    between atoms: _151  and  _152
REMARK   64  A    between atoms: _158  and  _160
REMARK   65  A    between atoms: _160  and  _161
REMARK   66  A    between atoms: _160  and  _163
REMARK   67  A    between atoms: _163  and  _164
REMARK   68  A    between atoms: _169  and  _170
REMARK   69  A    between atoms: _172  and  _174
REMARK   70  A    between atoms: _174  and  _175
REMARK   71  A    between atoms: _174  and  _177
REMARK   72  A    between atoms: _177  and  _178
REMARK   73  A    between atoms: _184  and  _186
REMARK   74  A    between atoms: _186  and  _187
REMARK   75  A    between atoms: _186  and  _189
REMARK   76  A    between atoms: _189  and  _190
REMARK   77  A    between atoms: _190  and  _191
REMARK   78  A    between atoms: _191  and  _192
REMARK   79  A    between atoms: _192  and  _193
REMARK   80  A    between atoms: _197  and  _199
REMARK   81  A    between atoms: _199  and  _200
REMARK   82  A    between atoms: _199  and  _202
REMARK   83  A    between atoms: _202  and  _203
REMARK   84  A    between atoms: _206  and  _208
REMARK   85  A    between atoms: _208  and  _209
REMARK   86  A    between atoms: _208  and  _211
REMARK   87  A    between atoms: _211  and  _212
REMARK   88  A    between atoms: _212  and  _213
REMARK   89  A    between atoms: _213  and  _214
REMARK   90  A    between atoms: _223  and  _225
REMARK   91  A    between atoms: _225  and  _226
REMARK   92  A    between atoms: _225  and  _228
REMARK   93  A    between atoms: _228  and  _229
REMARK   94  A    between atoms: _229  and  _230
REMARK   95  A    between atoms: _230  and  _231
REMARK   96  A    between atoms: _240  and  _242
REMARK   97  A    between atoms: _242  and  _243
REMARK   98  A    between atoms: _242  and  _245
REMARK   99  A    between atoms: _245  and  _246
REMARK  100  A    between atoms: _252  and  _254
REMARK  101  A    between atoms: _254  and  _255
REMARK  102  A    between atoms: _254  and  _257
REMARK  103  A    between atoms: _257  and  _258
REMARK  104  A    between atoms: _263  and  _264
REMARK                            x       y       z     vdW  Elec       q    Type
REMARK                         _______ _______ _______ _____ _____    ______ ____
ROOT
ATOM      1  O   HOH     1      29.712  10.025   5.274  0.00  0.00    +0.000 OA
ENDROOT
TORSDOF 0
REMARK  Name = ../refined-set-2016/1fao/1fao_pocket.pdb
REMARK  104 active torsions:
REMARK  status: ('A' for Active; 'I' for Inactive)
REMARK    1  A    between atoms: _1  and  _3
REMARK    2  A    between atoms: _3  and  _4
REMARK    3  A    between atoms: _3  and  _6
REMARK    4  A    between atoms: _6  and  _7
REMARK    5  A    between atoms: _7  and  _8
REMARK    6  A    between atoms: _8  and  _9
REMARK    7  A    between atoms: _9  and  _10
REMARK    8  A    between atoms: _14  and  _16
REMARK    9  A    between atoms: _16  and  _17
REMARK   10  A    between atoms: _16  and  _19
REMARK   11  A    between atoms: _19  and  _20
REMARK   12  A    between atoms: _20  and  _21
REMARK   13  A    between atoms: _26  and  _28
REMARK   14  A    between atoms: _28  and  _29
REMARK   15  A    between atoms: _31  and  _33
REMARK   16  A    between atoms: _33  and  _34
REMARK   17  A    between atoms: _36  and  _38
REMARK   18  A    between atoms: _38  and  _39
REMARK   19  A    between atoms: _38  and  _41
REMARK   20  A    between atoms: _41  and  _42
REMARK   21  A    between atoms: _45  and  _47
REMARK   22  A    between atoms: _47  and  _48
REMARK   23  A    between atoms: _47  and  _50
REMARK   24  A    between atoms: _53  and  _55
REMARK   25  A    between atoms: _55  and  _56
REMARK   26  A    between atoms: _55  and  _58
REMARK   27  A    between atoms: _58  and  _59
REMARK   28  A    between atoms: _59  and  _60
REMARK   29  A    between atoms: _60  and  _61
REMARK   30  A    between atoms: _61  and  _62
REMARK   31  A    between atoms: _66  and  _68
REMARK   32  A    between atoms: _68  and  _69
REMARK   33  A    between atoms: _68  and  _71
REMARK   34  A    between atoms: _71  and  _72
REMARK   35  A    between atoms: _75  and  _77
REMARK   36  A    between atoms: _77  and  _78
REMARK   37  A    between atoms: _77  and  _80
REMARK   38  A    between atoms: _80  and  _81
REMARK   39  A    between atoms: _91  and  _93
REMARK   40  A    between atoms: _93  and  _94
REMARK   41  A    between atoms: _93  and  _96
REMARK   42  A    between atoms: _96  and  _97
REMARK   43  A    between atoms: _97  and  _98
REMARK   44  A    between atoms: _98  and  _99
REMARK   45  A    between atoms: _99  and  _100
REMARK   46  A    between atoms: _104  and  _106
REMARK   47  A    between atoms: _106  and  _107
REMARK   48  A    between atoms: _106  and  _109
REMARK   49  A    between atoms: _109  and  _110
REMARK   50  A    between atoms: _113  and  _115
REMARK   51  A    between atoms: _115  and  _116
REMARK   52  A    between atoms: _115  and  _118
REMARK   53  A    between atoms: _118  and  _119
REMARK   54  A    between atoms: _119  and  _120
REMARK   55  A    between atoms: _120  and  _121
REMARK   56  A    between atoms: _130  and  _132
REMARK   57  A    between atoms: _132  and  _133
REMARK   58  A    between atoms: _132  and  _135
REMARK   59  A    between atoms: _135  and  _136
REMARK   60  A    between atoms: _146  and  _148
REMARK   61  A    between atoms: _148  and  _149
REMARK   62  A    between atoms: _148  and  _151
REMARK   63  A    between atoms: _151  and  _152
REMARK   64  A    between atoms: _158  and  _160
REMARK   65  A    between atoms: _160  and  _161
REMARK   66  A    between atoms: _160  and  _163
REMARK   67  A    between atoms: _163  and  _164
REMARK   68  A    between atoms: _169  and  _170
REMARK   69  A    between atoms: _172  and  _174
REMARK   70  A    between atoms: _174  and  _175
REMARK   71  A    between atoms: _174  and  _177
REMARK   72  A    between atoms: _177  and  _178
REMARK   73  A    between atoms: _184  and  _186
REMARK   74  A    between atoms: _186  and  _187
REMARK   75  A    between atoms: _186  and  _189
REMARK   76  A    between atoms: _189  and  _190
REMARK   77  A    between atoms: _190  and  _191
REMARK   78  A    between atoms: _191  and  _192
REMARK   79  A    between atoms: _192  and  _193
REMARK   80  A    between atoms: _197  and  _199
REMARK   81  A    between atoms: _199  and  _200
REMARK   82  A    between atoms: _199  and  _202
REMARK   83  A    between atoms: _202  and  _203
REMARK   84  A    between atoms: _206  and  _208
REMARK   85  A    between atoms: _208  and  _209
REMARK   86  A    between atoms: _208  and  _211
REMARK   87  A    between atoms: _211  and  _212
REMARK   88  A    between atoms: _212  and  _213
REMARK   89  A    between atoms: _213  and  _214
REMARK   90  A    between atoms: _223  and  _225
REMARK   91  A    between atoms: _225  and  _226
REMARK   92  A    between atoms: _225  and  _228
REMARK   93  A    between atoms: _228  and  _229
REMARK   94  A    between atoms: _229  and  _230
REMARK   95  A    between atoms: _230  and  _231
REMARK   96  A    between atoms: _240  and  _242
REMARK   97  A    between atoms: _242  and  _243
REMARK   98  A    between atoms: _242  and  _245
REMARK   99  A    between atoms: _245  and  _246
REMARK  100  A    between atoms: _252  and  _254
REMARK  101  A    between atoms: _254  and  _255
REMARK  102  A    between atoms: _254  and  _257
REMARK  103  A    between atoms: _257  and  _258
REMARK  104  A    between atoms: _263  and  _264
REMARK                            x       y       z     vdW  Elec       q    Type
REMARK                         _______ _______ _______ _____ _____    ______ ____
ROOT
ATOM      1  O   HOH     1      21.108  10.397   6.377  0.00  0.00    +0.000 OA
ENDROOT
TORSDOF 0
REMARK  Name = ../refined-set-2016/1fao/1fao_pocket.pdb
REMARK  104 active torsions:
REMARK  status: ('A' for Active; 'I' for Inactive)
REMARK    1  A    between atoms: _1  and  _3
REMARK    2  A    between atoms: _3  and  _4
REMARK    3  A    between atoms: _3  and  _6
REMARK    4  A    between atoms: _6  and  _7
REMARK    5  A    between atoms: _7  and  _8
REMARK    6  A    between atoms: _8  and  _9
REMARK    7  A    between atoms: _9  and  _10
REMARK    8  A    between atoms: _14  and  _16
REMARK    9  A    between atoms: _16  and  _17
REMARK   10  A    between atoms: _16  and  _19
REMARK   11  A    between atoms: _19  and  _20
REMARK   12  A    between atoms: _20  and  _21
REMARK   13  A    between atoms: _26  and  _28
REMARK   14  A    between atoms: _28  and  _29
REMARK   15  A    between atoms: _31  and  _33
REMARK   16  A    between atoms: _33  and  _34
REMARK   17  A    between atoms: _36  and  _38
REMARK   18  A    between atoms: _38  and  _39
REMARK   19  A    between atoms: _38  and  _41
REMARK   20  A    between atoms: _41  and  _42
REMARK   21  A    between atoms: _45  and  _47
REMARK   22  A    between atoms: _47  and  _48
REMARK   23  A    between atoms: _47  and  _50
REMARK   24  A    between atoms: _53  and  _55
REMARK   25  A    between atoms: _55  and  _56
REMARK   26  A    between atoms: _55  and  _58
REMARK   27  A    between atoms: _58  and  _59
REMARK   28  A    between atoms: _59  and  _60
REMARK   29  A    between atoms: _60  and  _61
REMARK   30  A    between atoms: _61  and  _62
REMARK   31  A    between atoms: _66  and  _68
REMARK   32  A    between atoms: _68  and  _69
REMARK   33  A    between atoms: _68  and  _71
REMARK   34  A    between atoms: _71  and  _72
REMARK   35  A    between atoms: _75  and  _77
REMARK   36  A    between atoms: _77  and  _78
REMARK   37  A    between atoms: _77  and  _80
REMARK   38  A    between atoms: _80  and  _81
REMARK   39  A    between atoms: _91  and  _93
REMARK   40  A    between atoms: _93  and  _94
REMARK   41  A    between atoms: _93  and  _96
REMARK   42  A    between atoms: _96  and  _97
REMARK   43  A    between atoms: _97  and  _98
REMARK   44  A    between atoms: _98  and  _99
REMARK   45  A    between atoms: _99  and  _100
REMARK   46  A    between atoms: _104  and  _106
REMARK   47  A    between atoms: _106  and  _107
REMARK   48  A    between atoms: _106  and  _109
REMARK   49  A    between atoms: _109  and  _110
REMARK   50  A    between atoms: _113  and  _115
REMARK   51  A    between atoms: _115  and  _116
REMARK   52  A    between atoms: _115  and  _118
REMARK   53  A    between atoms: _118  and  _119
REMARK   54  A    between atoms: _119  and  _120
REMARK   55  A    between atoms: _120  and  _121
REMARK   56  A    between atoms: _130  and  _132
REMARK   57  A    between atoms: _132  and  _133
REMARK   58  A    between atoms: _132  and  _135
REMARK   59  A    between atoms: _135  and  _136
REMARK   60  A    between atoms: _146  and  _148
REMARK   61  A    between atoms: _148  and  _149
REMARK   62  A    between atoms: _148  and  _151
REMARK   63  A    between atoms: _151  and  _152
REMARK   64  A    between atoms: _158  and  _160
REMARK   65  A    between atoms: _160  and  _161
REMARK   66  A    between atoms: _160  and  _163
REMARK   67  A    between atoms: _163  and  _164
REMARK   68  A    between atoms: _169  and  _170
REMARK   69  A    between atoms: _172  and  _174
REMARK   70  A    between atoms: _174  and  _175
REMARK   71  A    between atoms: _174  and  _177
REMARK   72  A    between atoms: _177  and  _178
REMARK   73  A    between atoms: _184  and  _186
REMARK   74  A    between atoms: _186  and  _187
REMARK   75  A    between atoms: _186  and  _189
REMARK   76  A    between atoms: _189  and  _190
REMARK   77  A    between atoms: _190  and  _191
REMARK   78  A    between atoms: _191  and  _192
REMARK   79  A    between atoms: _192  and  _193
REMARK   80  A    between atoms: _197  and  _199
REMARK   81  A    between atoms: _199  and  _200
REMARK   82  A    between atoms: _199  and  _202
REMARK   83  A    between atoms: _202  and  _203
REMARK   84  A    between atoms: _206  and  _208
REMARK   85  A    between atoms: _208  and  _209
REMARK   86  A    between atoms: _208  and  _211
REMARK   87  A    between atoms: _211  and  _212
REMARK   88  A    between atoms: _212  and  _213
REMARK   89  A    between atoms: _213  and  _214
REMARK   90  A    between atoms: _223  and  _225
REMARK   91  A    between atoms: _225  and  _226
REMARK   92  A    between atoms: _225  and  _228
REMARK   93  A    between atoms: _228  and  _229
REMARK   94  A    between atoms: _229  and  _230
REMARK   95  A    between atoms: _230  and  _231
REMARK   96  A    between atoms: _240  and  _242
REMARK   97  A    between atoms: _242  and  _243
REMARK   98  A    between atoms: _242  and  _245
REMARK   99  A    between atoms: _245  and  _246
REMARK  100  A    between atoms: _252  and  _254
REMARK  101  A    between atoms: _254  and  _255
REMARK  102  A    between atoms: _254  and  _257
REMARK  103  A    between atoms: _257  and  _258
REMARK  104  A    between atoms: _263  and  _264
REMARK                            x       y       z     vdW  Elec       q    Type
REMARK                         _______ _______ _______ _____ _____    ______ ____
ROOT
ATOM      1  O   HOH     1      14.454   4.657   7.092  0.00  0.00    +0.000 OA
ENDROOT
TORSDOF 0
REMARK  Name = ../refined-set-2016/1fao/1fao_pocket.pdb
REMARK  104 active torsions:
REMARK  status: ('A' for Active; 'I' for Inactive)
REMARK    1  A    between atoms: _1  and  _3
REMARK    2  A    between atoms: _3  and  _4
REMARK    3  A    between atoms: _3  and  _6
REMARK    4  A    between atoms: _6  and  _7
REMARK    5  A    between atoms: _7  and  _8
REMARK    6  A    between atoms: _8  and  _9
REMARK    7  A    between atoms: _9  and  _10
REMARK    8  A    between atoms: _14  and  _16
REMARK    9  A    between atoms: _16  and  _17
REMARK   10  A    between atoms: _16  and  _19
REMARK   11  A    between atoms: _19  and  _20
REMARK   12  A    between atoms: _20  and  _21
REMARK   13  A    between atoms: _26  and  _28
REMARK   14  A    between atoms: _28  and  _29
REMARK   15  A    between atoms: _31  and  _33
REMARK   16  A    between atoms: _33  and  _34
REMARK   17  A    between atoms: _36  and  _38
REMARK   18  A    between atoms: _38  and  _39
REMARK   19  A    between atoms: _38  and  _41
REMARK   20  A    between atoms: _41  and  _42
REMARK   21  A    between atoms: _45  and  _47
REMARK   22  A    between atoms: _47  and  _48
REMARK   23  A    between atoms: _47  and  _50
REMARK   24  A    between atoms: _53  and  _55
REMARK   25  A    between atoms: _55  and  _56
REMARK   26  A    between atoms: _55  and  _58
REMARK   27  A    between atoms: _58  and  _59
REMARK   28  A    between atoms: _59  and  _60
REMARK   29  A    between atoms: _60  and  _61
REMARK   30  A    between atoms: _61  and  _62
REMARK   31  A    between atoms: _66  and  _68
REMARK   32  A    between atoms: _68  and  _69
REMARK   33  A    between atoms: _68  and  _71
REMARK   34  A    between atoms: _71  and  _72
REMARK   35  A    between atoms: _75  and  _77
REMARK   36  A    between atoms: _77  and  _78
REMARK   37  A    between atoms: _77  and  _80
REMARK   38  A    between atoms: _80  and  _81
REMARK   39  A    between atoms: _91  and  _93
REMARK   40  A    between atoms: _93  and  _94
REMARK   41  A    between atoms: _93  and  _96
REMARK   42  A    between atoms: _96  and  _97
REMARK   43  A    between atoms: _97  and  _98
REMARK   44  A    between atoms: _98  and  _99
REMARK   45  A    between atoms: _99  and  _100
REMARK   46  A    between atoms: _104  and  _106
REMARK   47  A    between atoms: _106  and  _107
REMARK   48  A    between atoms: _106  and  _109
REMARK   49  A    between atoms: _109  and  _110
REMARK   50  A    between atoms: _113  and  _115
REMARK   51  A    between atoms: _115  and  _116
REMARK   52  A    between atoms: _115  and  _118
REMARK   53  A    between atoms: _118  and  _119
REMARK   54  A    between atoms: _119  and  _120
REMARK   55  A    between atoms: _120  and  _121
REMARK   56  A    between atoms: _130  and  _132
REMARK   57  A    between atoms: _132  and  _133
REMARK   58  A    between atoms: _132  and  _135
REMARK   59  A    between atoms: _135  and  _136
REMARK   60  A    between atoms: _146  and  _148
REMARK   61  A    between atoms: _148  and  _149
REMARK   62  A    between atoms: _148  and  _151
REMARK   63  A    between atoms: _151  and  _152
REMARK   64  A    between atoms: _158  and  _160
REMARK   65  A    between atoms: _160  and  _161
REMARK   66  A    between atoms: _160  and  _163
REMARK   67  A    between atoms: _163  and  _164
REMARK   68  A    between atoms: _169  and  _170
REMARK   69  A    between atoms: _172  and  _174
REMARK   70  A    between atoms: _174  and  _175
REMARK   71  A    between atoms: _174  and  _177
REMARK   72  A    between atoms: _177  and  _178
REMARK   73  A    between atoms: _184  and  _186
REMARK   74  A    between atoms: _186  and  _187
REMARK   75  A    between atoms: _186  and  _189
REMARK   76  A    between atoms: _189  and  _190
REMARK   77  A    between atoms: _190  and  _191
REMARK   78  A    between atoms: _191  and  _192
REMARK   79  A    between atoms: _192  and  _193
REMARK   80  A    between atoms: _197  and  _199
REMARK   81  A    between atoms: _199  and  _200
REMARK   82  A    between atoms: _199  and  _202
REMARK   83  A    between atoms: _202  and  _203
REMARK   84  A    between atoms: _206  and  _208
REMARK   85  A    between atoms: _208  and  _209
REMARK   86  A    between atoms: _208  and  _211
REMARK   87  A    between atoms: _211  and  _212
REMARK   88  A    between atoms: _212  and  _213
REMARK   89  A    between atoms: _213  and  _214
REMARK   90  A    between atoms: _223  and  _225
REMARK   91  A    between atoms: _225  and  _226
REMARK   92  A    between atoms: _225  and  _228
REMARK   93  A    between atoms: _228  and  _229
REMARK   94  A    between atoms: _229  and  _230
REMARK   95  A    between atoms: _230  and  _231
REMARK   96  A    between atoms: _240  and  _242
REMARK   97  A    between atoms: _242  and  _243
REMARK   98  A    between atoms: _242  and  _245
REMARK   99  A    between atoms: _245  and  _246
REMARK  100  A    between atoms: _252  and  _254
REMARK  101  A    between atoms: _254  and  _255
REMARK  102  A    between atoms: _254  and  _257
REMARK  103  A    between atoms: _257  and  _258
REMARK  104  A    between atoms: _263  and  _264
REMARK                            x       y       z     vdW  Elec       q    Type
REMARK                         _______ _______ _______ _____ _____    ______ ____
ROOT
ATOM      1  O   HOH     1      21.437   3.120   8.261  0.00  0.00    +0.000 OA
ENDROOT
TORSDOF 0
REMARK  Name = ../refined-set-2016/1fao/1fao_pocket.pdb
REMARK  104 active torsions:
REMARK  status: ('A' for Active; 'I' for Inactive)
REMARK    1  A    between atoms: _1  and  _3
REMARK    2  A    between atoms: _3  and  _4
REMARK    3  A    between atoms: _3  and  _6
REMARK    4  A    between atoms: _6  and  _7
REMARK    5  A    between atoms: _7  and  _8
REMARK    6  A    between atoms: _8  and  _9
REMARK    7  A    between atoms: _9  and  _10
REMARK    8  A    between atoms: _14  and  _16
REMARK    9  A    between atoms: _16  and  _17
REMARK   10  A    between atoms: _16  and  _19
REMARK   11  A    between atoms: _19  and  _20
REMARK   12  A    between atoms: _20  and  _21
REMARK   13  A    between atoms: _26  and  _28
REMARK   14  A    between atoms: _28  and  _29
REMARK   15  A    between atoms: _31  and  _33
REMARK   16  A    between atoms: _33  and  _34
REMARK   17  A    between atoms: _36  and  _38
REMARK   18  A    between atoms: _38  and  _39
REMARK   19  A    between atoms: _38  and  _41
REMARK   20  A    between atoms: _41  and  _42
REMARK   21  A    between atoms: _45  and  _47
REMARK   22  A    between atoms: _47  and  _48
REMARK   23  A    between atoms: _47  and  _50
REMARK   24  A    between atoms: _53  and  _55
REMARK   25  A    between atoms: _55  and  _56
REMARK   26  A    between atoms: _55  and  _58
REMARK   27  A    between atoms: _58  and  _59
REMARK   28  A    between atoms: _59  and  _60
REMARK   29  A    between atoms: _60  and  _61
REMARK   30  A    between atoms: _61  and  _62
REMARK   31  A    between atoms: _66  and  _68
REMARK   32  A    between atoms: _68  and  _69
REMARK   33  A    between atoms: _68  and  _71
REMARK   34  A    between atoms: _71  and  _72
REMARK   35  A    between atoms: _75  and  _77
REMARK   36  A    between atoms: _77  and  _78
REMARK   37  A    between atoms: _77  and  _80
REMARK   38  A    between atoms: _80  and  _81
REMARK   39  A    between atoms: _91  and  _93
REMARK   40  A    between atoms: _93  and  _94
REMARK   41  A    between atoms: _93  and  _96
REMARK   42  A    between atoms: _96  and  _97
REMARK   43  A    between atoms: _97  and  _98
REMARK   44  A    between atoms: _98  and  _99
REMARK   45  A    between atoms: _99  and  _100
REMARK   46  A    between atoms: _104  and  _106
REMARK   47  A    between atoms: _106  and  _107
REMARK   48  A    between atoms: _106  and  _109
REMARK   49  A    between atoms: _109  and  _110
REMARK   50  A    between atoms: _113  and  _115
REMARK   51  A    between atoms: _115  and  _116
REMARK   52  A    between atoms: _115  and  _118
REMARK   53  A    between atoms: _118  and  _119
REMARK   54  A    between atoms: _119  and  _120
REMARK   55  A    between atoms: _120  and  _121
REMARK   56  A    between atoms: _130  and  _132
REMARK   57  A    between atoms: _132  and  _133
REMARK   58  A    between atoms: _132  and  _135
REMARK   59  A    between atoms: _135  and  _136
REMARK   60  A    between atoms: _146  and  _148
REMARK   61  A    between atoms: _148  and  _149
REMARK   62  A    between atoms: _148  and  _151
REMARK   63  A    between atoms: _151  and  _152
REMARK   64  A    between atoms: _158  and  _160
REMARK   65  A    between atoms: _160  and  _161
REMARK   66  A    between atoms: _160  and  _163
REMARK   67  A    between atoms: _163  and  _164
REMARK   68  A    between atoms: _169  and  _170
REMARK   69  A    between atoms: _172  and  _174
REMARK   70  A    between atoms: _174  and  _175
REMARK   71  A    between atoms: _174  and  _177
REMARK   72  A    between atoms: _177  and  _178
REMARK   73  A    between atoms: _184  and  _186
REMARK   74  A    between atoms: _186  and  _187
REMARK   75  A    between atoms: _186  and  _189
REMARK   76  A    between atoms: _189  and  _190
REMARK   77  A    between atoms: _190  and  _191
REMARK   78  A    between atoms: _191  and  _192
REMARK   79  A    between atoms: _192  and  _193
REMARK   80  A    between atoms: _197  and  _199
REMARK   81  A    between atoms: _199  and  _200
REMARK   82  A    between atoms: _199  and  _202
REMARK   83  A    between atoms: _202  and  _203
REMARK   84  A    between atoms: _206  and  _208
REMARK   85  A    between atoms: _208  and  _209
REMARK   86  A    between atoms: _208  and  _211
REMARK   87  A    between atoms: _211  and  _212
REMARK   88  A    between atoms: _212  and  _213
REMARK   89  A    between atoms: _213  and  _214
REMARK   90  A    between atoms: _223  and  _225
REMARK   91  A    between atoms: _225  and  _226
REMARK   92  A    between atoms: _225  and  _228
REMARK   93  A    between atoms: _228  and  _229
REMARK   94  A    between atoms: _229  and  _230
REMARK   95  A    between atoms: _230  and  _231
REMARK   96  A    between atoms: _240  and  _242
REMARK   97  A    between atoms: _242  and  _243
REMARK   98  A    between atoms: _242  and  _245
REMARK   99  A    between atoms: _245  and  _246
REMARK  100  A    between atoms: _252  and  _254
REMARK  101  A    between atoms: _254  and  _255
REMARK  102  A    between atoms: _254  and  _257
REMARK  103  A    between atoms: _257  and  _258
REMARK  104  A    between atoms: _263  and  _264
REMARK                            x       y       z     vdW  Elec       q    Type
REMARK                         _______ _______ _______ _____ _____    ______ ____
ROOT
ATOM      1  O   HOH     1      23.838  10.499   4.574  0.00  0.00    +0.000 OA
ENDROOT
TORSDOF 0
REMARK  Name = ../refined-set-2016/1fao/1fao_pocket.pdb
REMARK  104 active torsions:
REMARK  status: ('A' for Active; 'I' for Inactive)
REMARK    1  A    between atoms: _1  and  _3
REMARK    2  A    between atoms: _3  and  _4
REMARK    3  A    between atoms: _3  and  _6
REMARK    4  A    between atoms: _6  and  _7
REMARK    5  A    between atoms: _7  and  _8
REMARK    6  A    between atoms: _8  and  _9
REMARK    7  A    between atoms: _9  and  _10
REMARK    8  A    between atoms: _14  and  _16
REMARK    9  A    between atoms: _16  and  _17
REMARK   10  A    between atoms: _16  and  _19
REMARK   11  A    between atoms: _19  and  _20
REMARK   12  A    between atoms: _20  and  _21
REMARK   13  A    between atoms: _26  and  _28
REMARK   14  A    between atoms: _28  and  _29
REMARK   15  A    between atoms: _31  and  _33
REMARK   16  A    between atoms: _33  and  _34
REMARK   17  A    between atoms: _36  and  _38
REMARK   18  A    between atoms: _38  and  _39
REMARK   19  A    between atoms: _38  and  _41
REMARK   20  A    between atoms: _41  and  _42
REMARK   21  A    between atoms: _45  and  _47
REMARK   22  A    between atoms: _47  and  _48
REMARK   23  A    between atoms: _47  and  _50
REMARK   24  A    between atoms: _53  and  _55
REMARK   25  A    between atoms: _55  and  _56
REMARK   26  A    between atoms: _55  and  _58
REMARK   27  A    between atoms: _58  and  _59
REMARK   28  A    between atoms: _59  and  _60
REMARK   29  A    between atoms: _60  and  _61
REMARK   30  A    between atoms: _61  and  _62
REMARK   31  A    between atoms: _66  and  _68
REMARK   32  A    between atoms: _68  and  _69
REMARK   33  A    between atoms: _68  and  _71
REMARK   34  A    between atoms: _71  and  _72
REMARK   35  A    between atoms: _75  and  _77
REMARK   36  A    between atoms: _77  and  _78
REMARK   37  A    between atoms: _77  and  _80
REMARK   38  A    between atoms: _80  and  _81
REMARK   39  A    between atoms: _91  and  _93
REMARK   40  A    between atoms: _93  and  _94
REMARK   41  A    between atoms: _93  and  _96
REMARK   42  A    between atoms: _96  and  _97
REMARK   43  A    between atoms: _97  and  _98
REMARK   44  A    between atoms: _98  and  _99
REMARK   45  A    between atoms: _99  and  _100
REMARK   46  A    between atoms: _104  and  _106
REMARK   47  A    between atoms: _106  and  _107
REMARK   48  A    between atoms: _106  and  _109
REMARK   49  A    between atoms: _109  and  _110
REMARK   50  A    between atoms: _113  and  _115
REMARK   51  A    between atoms: _115  and  _116
REMARK   52  A    between atoms: _115  and  _118
REMARK   53  A    between atoms: _118  and  _119
REMARK   54  A    between atoms: _119  and  _120
REMARK   55  A    between atoms: _120  and  _121
REMARK   56  A    between atoms: _130  and  _132
REMARK   57  A    between atoms: _132  and  _133
REMARK   58  A    between atoms: _132  and  _135
REMARK   59  A    between atoms: _135  and  _136
REMARK   60  A    between atoms: _146  and  _148
REMARK   61  A    between atoms: _148  and  _149
REMARK   62  A    between atoms: _148  and  _151
REMARK   63  A    between atoms: _151  and  _152
REMARK   64  A    between atoms: _158  and  _160
REMARK   65  A    between atoms: _160  and  _161
REMARK   66  A    between atoms: _160  and  _163
REMARK   67  A    between atoms: _163  and  _164
REMARK   68  A    between atoms: _169  and  _170
REMARK   69  A    between atoms: _172  and  _174
REMARK   70  A    between atoms: _174  and  _175
REMARK   71  A    between atoms: _174  and  _177
REMARK   72  A    between atoms: _177  and  _178
REMARK   73  A    between atoms: _184  and  _186
REMARK   74  A    between atoms: _186  and  _187
REMARK   75  A    between atoms: _186  and  _189
REMARK   76  A    between atoms: _189  and  _190
REMARK   77  A    between atoms: _190  and  _191
REMARK   78  A    between atoms: _191  and  _192
REMARK   79  A    between atoms: _192  and  _193
REMARK   80  A    between atoms: _197  and  _199
REMARK   81  A    between atoms: _199  and  _200
REMARK   82  A    between atoms: _199  and  _202
REMARK   83  A    between atoms: _202  and  _203
REMARK   84  A    between atoms: _206  and  _208
REMARK   85  A    between atoms: _208  and  _209
REMARK   86  A    between atoms: _208  and  _211
REMARK   87  A    between atoms: _211  and  _212
REMARK   88  A    between atoms: _212  and  _213
REMARK   89  A    between atoms: _213  and  _214
REMARK   90  A    between atoms: _223  and  _225
REMARK   91  A    between atoms: _225  and  _226
REMARK   92  A    between atoms: _225  and  _228
REMARK   93  A    between atoms: _228  and  _229
REMARK   94  A    between atoms: _229  and  _230
REMARK   95  A    between atoms: _230  and  _231
REMARK   96  A    between atoms: _240  and  _242
REMARK   97  A    between atoms: _242  and  _243
REMARK   98  A    between atoms: _242  and  _245
REMARK   99  A    between atoms: _245  and  _246
REMARK  100  A    between atoms: _252  and  _254
REMARK  101  A    between atoms: _254  and  _255
REMARK  102  A    between atoms: _254  and  _257
REMARK  103  A    between atoms: _257  and  _258
REMARK  104  A    between atoms: _263  and  _264
REMARK                            x       y       z     vdW  Elec       q    Type
REMARK                         _______ _______ _______ _____ _____    ______ ____
ROOT
ATOM      1  O   HOH     1      29.093  14.470  11.499  0.00  0.00    +0.000 OA
ENDROOT
TORSDOF 0
REMARK  Name = ../refined-set-2016/1fao/1fao_pocket.pdb
REMARK  104 active torsions:
REMARK  status: ('A' for Active; 'I' for Inactive)
REMARK    1  A    between atoms: _1  and  _3
REMARK    2  A    between atoms: _3  and  _4
REMARK    3  A    between atoms: _3  and  _6
REMARK    4  A    between atoms: _6  and  _7
REMARK    5  A    between atoms: _7  and  _8
REMARK    6  A    between atoms: _8  and  _9
REMARK    7  A    between atoms: _9  and  _10
REMARK    8  A    between atoms: _14  and  _16
REMARK    9  A    between atoms: _16  and  _17
REMARK   10  A    between atoms: _16  and  _19
REMARK   11  A    between atoms: _19  and  _20
REMARK   12  A    between atoms: _20  and  _21
REMARK   13  A    between atoms: _26  and  _28
REMARK   14  A    between atoms: _28  and  _29
REMARK   15  A    between atoms: _31  and  _33
REMARK   16  A    between atoms: _33  and  _34
REMARK   17  A    between atoms: _36  and  _38
REMARK   18  A    between atoms: _38  and  _39
REMARK   19  A    between atoms: _38  and  _41
REMARK   20  A    between atoms: _41  and  _42
REMARK   21  A    between atoms: _45  and  _47
REMARK   22  A    between atoms: _47  and  _48
REMARK   23  A    between atoms: _47  and  _50
REMARK   24  A    between atoms: _53  and  _55
REMARK   25  A    between atoms: _55  and  _56
REMARK   26  A    between atoms: _55  and  _58
REMARK   27  A    between atoms: _58  and  _59
REMARK   28  A    between atoms: _59  and  _60
REMARK   29  A    between atoms: _60  and  _61
REMARK   30  A    between atoms: _61  and  _62
REMARK   31  A    between atoms: _66  and  _68
REMARK   32  A    between atoms: _68  and  _69
REMARK   33  A    between atoms: _68  and  _71
REMARK   34  A    between atoms: _71  and  _72
REMARK   35  A    between atoms: _75  and  _77
REMARK   36  A    between atoms: _77  and  _78
REMARK   37  A    between atoms: _77  and  _80
REMARK   38  A    between atoms: _80  and  _81
REMARK   39  A    between atoms: _91  and  _93
REMARK   40  A    between atoms: _93  and  _94
REMARK   41  A    between atoms: _93  and  _96
REMARK   42  A    between atoms: _96  and  _97
REMARK   43  A    between atoms: _97  and  _98
REMARK   44  A    between atoms: _98  and  _99
REMARK   45  A    between atoms: _99  and  _100
REMARK   46  A    between atoms: _104  and  _106
REMARK   47  A    between atoms: _106  and  _107
REMARK   48  A    between atoms: _106  and  _109
REMARK   49  A    between atoms: _109  and  _110
REMARK   50  A    between atoms: _113  and  _115
REMARK   51  A    between atoms: _115  and  _116
REMARK   52  A    between atoms: _115  and  _118
REMARK   53  A    between atoms: _118  and  _119
REMARK   54  A    between atoms: _119  and  _120
REMARK   55  A    between atoms: _120  and  _121
REMARK   56  A    between atoms: _130  and  _132
REMARK   57  A    between atoms: _132  and  _133
REMARK   58  A    between atoms: _132  and  _135
REMARK   59  A    between atoms: _135  and  _136
REMARK   60  A    between atoms: _146  and  _148
REMARK   61  A    between atoms: _148  and  _149
REMARK   62  A    between atoms: _148  and  _151
REMARK   63  A    between atoms: _151  and  _152
REMARK   64  A    between atoms: _158  and  _160
REMARK   65  A    between atoms: _160  and  _161
REMARK   66  A    between atoms: _160  and  _163
REMARK   67  A    between atoms: _163  and  _164
REMARK   68  A    between atoms: _169  and  _170
REMARK   69  A    between atoms: _172  and  _174
REMARK   70  A    between atoms: _174  and  _175
REMARK   71  A    between atoms: _174  and  _177
REMARK   72  A    between atoms: _177  and  _178
REMARK   73  A    between atoms: _184  and  _186
REMARK   74  A    between atoms: _186  and  _187
REMARK   75  A    between atoms: _186  and  _189
REMARK   76  A    between atoms: _189  and  _190
REMARK   77  A    between atoms: _190  and  _191
REMARK   78  A    between atoms: _191  and  _192
REMARK   79  A    between atoms: _192  and  _193
REMARK   80  A    between atoms: _197  and  _199
REMARK   81  A    between atoms: _199  and  _200
REMARK   82  A    between atoms: _199  and  _202
REMARK   83  A    between atoms: _202  and  _203
REMARK   84  A    between atoms: _206  and  _208
REMARK   85  A    between atoms: _208  and  _209
REMARK   86  A    between atoms: _208  and  _211
REMARK   87  A    between atoms: _211  and  _212
REMARK   88  A    between atoms: _212  and  _213
REMARK   89  A    between atoms: _213  and  _214
REMARK   90  A    between atoms: _223  and  _225
REMARK   91  A    between atoms: _225  and  _226
REMARK   92  A    between atoms: _225  and  _228
REMARK   93  A    between atoms: _228  and  _229
REMARK   94  A    between atoms: _229  and  _230
REMARK   95  A    between atoms: _230  and  _231
REMARK   96  A    between atoms: _240  and  _242
REMARK   97  A    between atoms: _242  and  _243
REMARK   98  A    between atoms: _242  and  _245
REMARK   99  A    between atoms: _245  and  _246
REMARK  100  A    between atoms: _252  and  _254
REMARK  101  A    between atoms: _254  and  _255
REMARK  102  A    between atoms: _254  and  _257
REMARK  103  A    between atoms: _257  and  _258
REMARK  104  A    between atoms: _263  and  _264
REMARK                            x       y       z     vdW  Elec       q    Type
REMARK                         _______ _______ _______ _____ _____    ______ ____
ROOT
ATOM      1  O   HOH     1      34.028   7.866  10.514  0.00  0.00    +0.000 OA
ENDROOT
TORSDOF 0
REMARK  Name = ../refined-set-2016/1fao/1fao_pocket.pdb
REMARK  104 active torsions:
REMARK  status: ('A' for Active; 'I' for Inactive)
REMARK    1  A    between atoms: _1  and  _3
REMARK    2  A    between atoms: _3  and  _4
REMARK    3  A    between atoms: _3  and  _6
REMARK    4  A    between atoms: _6  and  _7
REMARK    5  A    between atoms: _7  and  _8
REMARK    6  A    between atoms: _8  and  _9
REMARK    7  A    between atoms: _9  and  _10
REMARK    8  A    between atoms: _14  and  _16
REMARK    9  A    between atoms: _16  and  _17
REMARK   10  A    between atoms: _16  and  _19
REMARK   11  A    between atoms: _19  and  _20
REMARK   12  A    between atoms: _20  and  _21
REMARK   13  A    between atoms: _26  and  _28
REMARK   14  A    between atoms: _28  and  _29
REMARK   15  A    between atoms: _31  and  _33
REMARK   16  A    between atoms: _33  and  _34
REMARK   17  A    between atoms: _36  and  _38
REMARK   18  A    between atoms: _38  and  _39
REMARK   19  A    between atoms: _38  and  _41
REMARK   20  A    between atoms: _41  and  _42
REMARK   21  A    between atoms: _45  and  _47
REMARK   22  A    between atoms: _47  and  _48
REMARK   23  A    between atoms: _47  and  _50
REMARK   24  A    between atoms: _53  and  _55
REMARK   25  A    between atoms: _55  and  _56
REMARK   26  A    between atoms: _55  and  _58
REMARK   27  A    between atoms: _58  and  _59
REMARK   28  A    between atoms: _59  and  _60
REMARK   29  A    between atoms: _60  and  _61
REMARK   30  A    between atoms: _61  and  _62
REMARK   31  A    between atoms: _66  and  _68
REMARK   32  A    between atoms: _68  and  _69
REMARK   33  A    between atoms: _68  and  _71
REMARK   34  A    between atoms: _71  and  _72
REMARK   35  A    between atoms: _75  and  _77
REMARK   36  A    between atoms: _77  and  _78
REMARK   37  A    between atoms: _77  and  _80
REMARK   38  A    between atoms: _80  and  _81
REMARK   39  A    between atoms: _91  and  _93
REMARK   40  A    between atoms: _93  and  _94
REMARK   41  A    between atoms: _93  and  _96
REMARK   42  A    between atoms: _96  and  _97
REMARK   43  A    between atoms: _97  and  _98
REMARK   44  A    between atoms: _98  and  _99
REMARK   45  A    between atoms: _99  and  _100
REMARK   46  A    between atoms: _104  and  _106
REMARK   47  A    between atoms: _106  and  _107
REMARK   48  A    between atoms: _106  and  _109
REMARK   49  A    between atoms: _109  and  _110
REMARK   50  A    between atoms: _113  and  _115
REMARK   51  A    between atoms: _115  and  _116
REMARK   52  A    between atoms: _115  and  _118
REMARK   53  A    between atoms: _118  and  _119
REMARK   54  A    between atoms: _119  and  _120
REMARK   55  A    between atoms: _120  and  _121
REMARK   56  A    between atoms: _130  and  _132
REMARK   57  A    between atoms: _132  and  _133
REMARK   58  A    between atoms: _132  and  _135
REMARK   59  A    between atoms: _135  and  _136
REMARK   60  A    between atoms: _146  and  _148
REMARK   61  A    between atoms: _148  and  _149
REMARK   62  A    between atoms: _148  and  _151
REMARK   63  A    between atoms: _151  and  _152
REMARK   64  A    between atoms: _158  and  _160
REMARK   65  A    between atoms: _160  and  _161
REMARK   66  A    between atoms: _160  and  _163
REMARK   67  A    between atoms: _163  and  _164
REMARK   68  A    between atoms: _169  and  _170
REMARK   69  A    between atoms: _172  and  _174
REMARK   70  A    between atoms: _174  and  _175
REMARK   71  A    between atoms: _174  and  _177
REMARK   72  A    between atoms: _177  and  _178
REMARK   73  A    between atoms: _184  and  _186
REMARK   74  A    between atoms: _186  and  _187
REMARK   75  A    between atoms: _186  and  _189
REMARK   76  A    between atoms: _189  and  _190
REMARK   77  A    between atoms: _190  and  _191
REMARK   78  A    between atoms: _191  and  _192
REMARK   79  A    between atoms: _192  and  _193
REMARK   80  A    between atoms: _197  and  _199
REMARK   81  A    between atoms: _199  and  _200
REMARK   82  A    between atoms: _199  and  _202
REMARK   83  A    between atoms: _202  and  _203
REMARK   84  A    between atoms: _206  and  _208
REMARK   85  A    between atoms: _208  and  _209
REMARK   86  A    between atoms: _208  and  _211
REMARK   87  A    between atoms: _211  and  _212
REMARK   88  A    between atoms: _212  and  _213
REMARK   89  A    between atoms: _213  and  _214
REMARK   90  A    between atoms: _223  and  _225
REMARK   91  A    between atoms: _225  and  _226
REMARK   92  A    between atoms: _225  and  _228
REMARK   93  A    between atoms: _228  and  _229
REMARK   94  A    between atoms: _229  and  _230
REMARK   95  A    between atoms: _230  and  _231
REMARK   96  A    between atoms: _240  and  _242
REMARK   97  A    between atoms: _242  and  _243
REMARK   98  A    between atoms: _242  and  _245
REMARK   99  A    between atoms: _245  and  _246
REMARK  100  A    between atoms: _252  and  _254
REMARK  101  A    between atoms: _254  and  _255
REMARK  102  A    between atoms: _254  and  _257
REMARK  103  A    between atoms: _257  and  _258
REMARK  104  A    between atoms: _263  and  _264
REMARK                            x       y       z     vdW  Elec       q    Type
REMARK                         _______ _______ _______ _____ _____    ______ ____
ROOT
ATOM      1  O   HOH     1      20.808   0.848  12.082  0.00  0.00    +0.000 OA
ENDROOT
TORSDOF 0
REMARK  Name = ../refined-set-2016/1fao/1fao_pocket.pdb
REMARK  104 active torsions:
REMARK  status: ('A' for Active; 'I' for Inactive)
REMARK    1  A    between atoms: _1  and  _3
REMARK    2  A    between atoms: _3  and  _4
REMARK    3  A    between atoms: _3  and  _6
REMARK    4  A    between atoms: _6  and  _7
REMARK    5  A    between atoms: _7  and  _8
REMARK    6  A    between atoms: _8  and  _9
REMARK    7  A    between atoms: _9  and  _10
REMARK    8  A    between atoms: _14  and  _16
REMARK    9  A    between atoms: _16  and  _17
REMARK   10  A    between atoms: _16  and  _19
REMARK   11  A    between atoms: _19  and  _20
REMARK   12  A    between atoms: _20  and  _21
REMARK   13  A    between atoms: _26  and  _28
REMARK   14  A    between atoms: _28  and  _29
REMARK   15  A    between atoms: _31  and  _33
REMARK   16  A    between atoms: _33  and  _34
REMARK   17  A    between atoms: _36  and  _38
REMARK   18  A    between atoms: _38  and  _39
REMARK   19  A    between atoms: _38  and  _41
REMARK   20  A    between atoms: _41  and  _42
REMARK   21  A    between atoms: _45  and  _47
REMARK   22  A    between atoms: _47  and  _48
REMARK   23  A    between atoms: _47  and  _50
REMARK   24  A    between atoms: _53  and  _55
REMARK   25  A    between atoms: _55  and  _56
REMARK   26  A    between atoms: _55  and  _58
REMARK   27  A    between atoms: _58  and  _59
REMARK   28  A    between atoms: _59  and  _60
REMARK   29  A    between atoms: _60  and  _61
REMARK   30  A    between atoms: _61  and  _62
REMARK   31  A    between atoms: _66  and  _68
REMARK   32  A    between atoms: _68  and  _69
REMARK   33  A    between atoms: _68  and  _71
REMARK   34  A    between atoms: _71  and  _72
REMARK   35  A    between atoms: _75  and  _77
REMARK   36  A    between atoms: _77  and  _78
REMARK   37  A    between atoms: _77  and  _80
REMARK   38  A    between atoms: _80  and  _81
REMARK   39  A    between atoms: _91  and  _93
REMARK   40  A    between atoms: _93  and  _94
REMARK   41  A    between atoms: _93  and  _96
REMARK   42  A    between atoms: _96  and  _97
REMARK   43  A    between atoms: _97  and  _98
REMARK   44  A    between atoms: _98  and  _99
REMARK   45  A    between atoms: _99  and  _100
REMARK   46  A    between atoms: _104  and  _106
REMARK   47  A    between atoms: _106  and  _107
REMARK   48  A    between atoms: _106  and  _109
REMARK   49  A    between atoms: _109  and  _110
REMARK   50  A    between atoms: _113  and  _115
REMARK   51  A    between atoms: _115  and  _116
REMARK   52  A    between atoms: _115  and  _118
REMARK   53  A    between atoms: _118  and  _119
REMARK   54  A    between atoms: _119  and  _120
REMARK   55  A    between atoms: _120  and  _121
REMARK   56  A    between atoms: _130  and  _132
REMARK   57  A    between atoms: _132  and  _133
REMARK   58  A    between atoms: _132  and  _135
REMARK   59  A    between atoms: _135  and  _136
REMARK   60  A    between atoms: _146  and  _148
REMARK   61  A    between atoms: _148  and  _149
REMARK   62  A    between atoms: _148  and  _151
REMARK   63  A    between atoms: _151  and  _152
REMARK   64  A    between atoms: _158  and  _160
REMARK   65  A    between atoms: _160  and  _161
REMARK   66  A    between atoms: _160  and  _163
REMARK   67  A    between atoms: _163  and  _164
REMARK   68  A    between atoms: _169  and  _170
REMARK   69  A    between atoms: _172  and  _174
REMARK   70  A    between atoms: _174  and  _175
REMARK   71  A    between atoms: _174  and  _177
REMARK   72  A    between atoms: _177  and  _178
REMARK   73  A    between atoms: _184  and  _186
REMARK   74  A    between atoms: _186  and  _187
REMARK   75  A    between atoms: _186  and  _189
REMARK   76  A    between atoms: _189  and  _190
REMARK   77  A    between atoms: _190  and  _191
REMARK   78  A    between atoms: _191  and  _192
REMARK   79  A    between atoms: _192  and  _193
REMARK   80  A    between atoms: _197  and  _199
REMARK   81  A    between atoms: _199  and  _200
REMARK   82  A    between atoms: _199  and  _202
REMARK   83  A    between atoms: _202  and  _203
REMARK   84  A    between atoms: _206  and  _208
REMARK   85  A    between atoms: _208  and  _209
REMARK   86  A    between atoms: _208  and  _211
REMARK   87  A    between atoms: _211  and  _212
REMARK   88  A    between atoms: _212  and  _213
REMARK   89  A    between atoms: _213  and  _214
REMARK   90  A    between atoms: _223  and  _225
REMARK   91  A    between atoms: _225  and  _226
REMARK   92  A    between atoms: _225  and  _228
REMARK   93  A    between atoms: _228  and  _229
REMARK   94  A    between atoms: _229  and  _230
REMARK   95  A    between atoms: _230  and  _231
REMARK   96  A    between atoms: _240  and  _242
REMARK   97  A    between atoms: _242  and  _243
REMARK   98  A    between atoms: _242  and  _245
REMARK   99  A    between atoms: _245  and  _246
REMARK  100  A    between atoms: _252  and  _254
REMARK  101  A    between atoms: _254  and  _255
REMARK  102  A    between atoms: _254  and  _257
REMARK  103  A    between atoms: _257  and  _258
REMARK  104  A    between atoms: _263  and  _264
REMARK                            x       y       z     vdW  Elec       q    Type
REMARK                         _______ _______ _______ _____ _____    ______ ____
ROOT
ATOM      1  O   HOH     1      26.921  12.114   5.760  0.00  0.00    +0.000 OA
ENDROOT
TORSDOF 0
REMARK  Name = ../refined-set-2016/1fao/1fao_pocket.pdb
REMARK  104 active torsions:
REMARK  status: ('A' for Active; 'I' for Inactive)
REMARK    1  A    between atoms: _1  and  _3
REMARK    2  A    between atoms: _3  and  _4
REMARK    3  A    between atoms: _3  and  _6
REMARK    4  A    between atoms: _6  and  _7
REMARK    5  A    between atoms: _7  and  _8
REMARK    6  A    between atoms: _8  and  _9
REMARK    7  A    between atoms: _9  and  _10
REMARK    8  A    between atoms: _14  and  _16
REMARK    9  A    between atoms: _16  and  _17
REMARK   10  A    between atoms: _16  and  _19
REMARK   11  A    between atoms: _19  and  _20
REMARK   12  A    between atoms: _20  and  _21
REMARK   13  A    between atoms: _26  and  _28
REMARK   14  A    between atoms: _28  and  _29
REMARK   15  A    between atoms: _31  and  _33
REMARK   16  A    between atoms: _33  and  _34
REMARK   17  A    between atoms: _36  and  _38
REMARK   18  A    between atoms: _38  and  _39
REMARK   19  A    between atoms: _38  and  _41
REMARK   20  A    between atoms: _41  and  _42
REMARK   21  A    between atoms: _45  and  _47
REMARK   22  A    between atoms: _47  and  _48
REMARK   23  A    between atoms: _47  and  _50
REMARK   24  A    between atoms: _53  and  _55
REMARK   25  A    between atoms: _55  and  _56
REMARK   26  A    between atoms: _55  and  _58
REMARK   27  A    between atoms: _58  and  _59
REMARK   28  A    between atoms: _59  and  _60
REMARK   29  A    between atoms: _60  and  _61
REMARK   30  A    between atoms: _61  and  _62
REMARK   31  A    between atoms: _66  and  _68
REMARK   32  A    between atoms: _68  and  _69
REMARK   33  A    between atoms: _68  and  _71
REMARK   34  A    between atoms: _71  and  _72
REMARK   35  A    between atoms: _75  and  _77
REMARK   36  A    between atoms: _77  and  _78
REMARK   37  A    between atoms: _77  and  _80
REMARK   38  A    between atoms: _80  and  _81
REMARK   39  A    between atoms: _91  and  _93
REMARK   40  A    between atoms: _93  and  _94
REMARK   41  A    between atoms: _93  and  _96
REMARK   42  A    between atoms: _96  and  _97
REMARK   43  A    between atoms: _97  and  _98
REMARK   44  A    between atoms: _98  and  _99
REMARK   45  A    between atoms: _99  and  _100
REMARK   46  A    between atoms: _104  and  _106
REMARK   47  A    between atoms: _106  and  _107
REMARK   48  A    between atoms: _106  and  _109
REMARK   49  A    between atoms: _109  and  _110
REMARK   50  A    between atoms: _113  and  _115
REMARK   51  A    between atoms: _115  and  _116
REMARK   52  A    between atoms: _115  and  _118
REMARK   53  A    between atoms: _118  and  _119
REMARK   54  A    between atoms: _119  and  _120
REMARK   55  A    between atoms: _120  and  _121
REMARK   56  A    between atoms: _130  and  _132
REMARK   57  A    between atoms: _132  and  _133
REMARK   58  A    between atoms: _132  and  _135
REMARK   59  A    between atoms: _135  and  _136
REMARK   60  A    between atoms: _146  and  _148
REMARK   61  A    between atoms: _148  and  _149
REMARK   62  A    between atoms: _148  and  _151
REMARK   63  A    between atoms: _151  and  _152
REMARK   64  A    between atoms: _158  and  _160
REMARK   65  A    between atoms: _160  and  _161
REMARK   66  A    between atoms: _160  and  _163
REMARK   67  A    between atoms: _163  and  _164
REMARK   68  A    between atoms: _169  and  _170
REMARK   69  A    between atoms: _172  and  _174
REMARK   70  A    between atoms: _174  and  _175
REMARK   71  A    between atoms: _174  and  _177
REMARK   72  A    between atoms: _177  and  _178
REMARK   73  A    between atoms: _184  and  _186
REMARK   74  A    between atoms: _186  and  _187
REMARK   75  A    between atoms: _186  and  _189
REMARK   76  A    between atoms: _189  and  _190
REMARK   77  A    between atoms: _190  and  _191
REMARK   78  A    between atoms: _191  and  _192
REMARK   79  A    between atoms: _192  and  _193
REMARK   80  A    between atoms: _197  and  _199
REMARK   81  A    between atoms: _199  and  _200
REMARK   82  A    between atoms: _199  and  _202
REMARK   83  A    between atoms: _202  and  _203
REMARK   84  A    between atoms: _206  and  _208
REMARK   85  A    between atoms: _208  and  _209
REMARK   86  A    between atoms: _208  and  _211
REMARK   87  A    between atoms: _211  and  _212
REMARK   88  A    between atoms: _212  and  _213
REMARK   89  A    between atoms: _213  and  _214
REMARK   90  A    between atoms: _223  and  _225
REMARK   91  A    between atoms: _225  and  _226
REMARK   92  A    between atoms: _225  and  _228
REMARK   93  A    between atoms: _228  and  _229
REMARK   94  A    between atoms: _229  and  _230
REMARK   95  A    between atoms: _230  and  _231
REMARK   96  A    between atoms: _240  and  _242
REMARK   97  A    between atoms: _242  and  _243
REMARK   98  A    between atoms: _242  and  _245
REMARK   99  A    between atoms: _245  and  _246
REMARK  100  A    between atoms: _252  and  _254
REMARK  101  A    between atoms: _254  and  _255
REMARK  102  A    between atoms: _254  and  _257
REMARK  103  A    between atoms: _257  and  _258
REMARK  104  A    between atoms: _263  and  _264
REMARK                            x       y       z     vdW  Elec       q    Type
REMARK                         _______ _______ _______ _____ _____    ______ ____
ROOT
ATOM      1  O   HOH     1      16.280  12.641   8.148  0.00  0.00    +0.000 OA
ENDROOT
TORSDOF 0
REMARK  Name = ../refined-set-2016/1fao/1fao_pocket.pdb
REMARK  104 active torsions:
REMARK  status: ('A' for Active; 'I' for Inactive)
REMARK    1  A    between atoms: _1  and  _3
REMARK    2  A    between atoms: _3  and  _4
REMARK    3  A    between atoms: _3  and  _6
REMARK    4  A    between atoms: _6  and  _7
REMARK    5  A    between atoms: _7  and  _8
REMARK    6  A    between atoms: _8  and  _9
REMARK    7  A    between atoms: _9  and  _10
REMARK    8  A    between atoms: _14  and  _16
REMARK    9  A    between atoms: _16  and  _17
REMARK   10  A    between atoms: _16  and  _19
REMARK   11  A    between atoms: _19  and  _20
REMARK   12  A    between atoms: _20  and  _21
REMARK   13  A    between atoms: _26  and  _28
REMARK   14  A    between atoms: _28  and  _29
REMARK   15  A    between atoms: _31  and  _33
REMARK   16  A    between atoms: _33  and  _34
REMARK   17  A    between atoms: _36  and  _38
REMARK   18  A    between atoms: _38  and  _39
REMARK   19  A    between atoms: _38  and  _41
REMARK   20  A    between atoms: _41  and  _42
REMARK   21  A    between atoms: _45  and  _47
REMARK   22  A    between atoms: _47  and  _48
REMARK   23  A    between atoms: _47  and  _50
REMARK   24  A    between atoms: _53  and  _55
REMARK   25  A    between atoms: _55  and  _56
REMARK   26  A    between atoms: _55  and  _58
REMARK   27  A    between atoms: _58  and  _59
REMARK   28  A    between atoms: _59  and  _60
REMARK   29  A    between atoms: _60  and  _61
REMARK   30  A    between atoms: _61  and  _62
REMARK   31  A    between atoms: _66  and  _68
REMARK   32  A    between atoms: _68  and  _69
REMARK   33  A    between atoms: _68  and  _71
REMARK   34  A    between atoms: _71  and  _72
REMARK   35  A    between atoms: _75  and  _77
REMARK   36  A    between atoms: _77  and  _78
REMARK   37  A    between atoms: _77  and  _80
REMARK   38  A    between atoms: _80  and  _81
REMARK   39  A    between atoms: _91  and  _93
REMARK   40  A    between atoms: _93  and  _94
REMARK   41  A    between atoms: _93  and  _96
REMARK   42  A    between atoms: _96  and  _97
REMARK   43  A    between atoms: _97  and  _98
REMARK   44  A    between atoms: _98  and  _99
REMARK   45  A    between atoms: _99  and  _100
REMARK   46  A    between atoms: _104  and  _106
REMARK   47  A    between atoms: _106  and  _107
REMARK   48  A    between atoms: _106  and  _109
REMARK   49  A    between atoms: _109  and  _110
REMARK   50  A    between atoms: _113  and  _115
REMARK   51  A    between atoms: _115  and  _116
REMARK   52  A    between atoms: _115  and  _118
REMARK   53  A    between atoms: _118  and  _119
REMARK   54  A    between atoms: _119  and  _120
REMARK   55  A    between atoms: _120  and  _121
REMARK   56  A    between atoms: _130  and  _132
REMARK   57  A    between atoms: _132  and  _133
REMARK   58  A    between atoms: _132  and  _135
REMARK   59  A    between atoms: _135  and  _136
REMARK   60  A    between atoms: _146  and  _148
REMARK   61  A    between atoms: _148  and  _149
REMARK   62  A    between atoms: _148  and  _151
REMARK   63  A    between atoms: _151  and  _152
REMARK   64  A    between atoms: _158  and  _160
REMARK   65  A    between atoms: _160  and  _161
REMARK   66  A    between atoms: _160  and  _163
REMARK   67  A    between atoms: _163  and  _164
REMARK   68  A    between atoms: _169  and  _170
REMARK   69  A    between atoms: _172  and  _174
REMARK   70  A    between atoms: _174  and  _175
REMARK   71  A    between atoms: _174  and  _177
REMARK   72  A    between atoms: _177  and  _178
REMARK   73  A    between atoms: _184  and  _186
REMARK   74  A    between atoms: _186  and  _187
REMARK   75  A    between atoms: _186  and  _189
REMARK   76  A    between atoms: _189  and  _190
REMARK   77  A    between atoms: _190  and  _191
REMARK   78  A    between atoms: _191  and  _192
REMARK   79  A    between atoms: _192  and  _193
REMARK   80  A    between atoms: _197  and  _199
REMARK   81  A    between atoms: _199  and  _200
REMARK   82  A    between atoms: _199  and  _202
REMARK   83  A    between atoms: _202  and  _203
REMARK   84  A    between atoms: _206  and  _208
REMARK   85  A    between atoms: _208  and  _209
REMARK   86  A    between atoms: _208  and  _211
REMARK   87  A    between atoms: _211  and  _212
REMARK   88  A    between atoms: _212  and  _213
REMARK   89  A    between atoms: _213  and  _214
REMARK   90  A    between atoms: _223  and  _225
REMARK   91  A    between atoms: _225  and  _226
REMARK   92  A    between atoms: _225  and  _228
REMARK   93  A    between atoms: _228  and  _229
REMARK   94  A    between atoms: _229  and  _230
REMARK   95  A    between atoms: _230  and  _231
REMARK   96  A    between atoms: _240  and  _242
REMARK   97  A    between atoms: _242  and  _243
REMARK   98  A    between atoms: _242  and  _245
REMARK   99  A    between atoms: _245  and  _246
REMARK  100  A    between atoms: _252  and  _254
REMARK  101  A    between atoms: _254  and  _255
REMARK  102  A    between atoms: _254  and  _257
REMARK  103  A    between atoms: _257  and  _258
REMARK  104  A    between atoms: _263  and  _264
REMARK                            x       y       z     vdW  Elec       q    Type
REMARK                         _______ _______ _______ _____ _____    ______ ____
ROOT
ATOM      1  O   HOH     1      30.058   1.943   6.919  0.00  0.00    +0.000 OA
ENDROOT
TORSDOF 0
REMARK  Name = ../refined-set-2016/1fao/1fao_pocket.pdb
REMARK  104 active torsions:
REMARK  status: ('A' for Active; 'I' for Inactive)
REMARK    1  A    between atoms: _1  and  _3
REMARK    2  A    between atoms: _3  and  _4
REMARK    3  A    between atoms: _3  and  _6
REMARK    4  A    between atoms: _6  and  _7
REMARK    5  A    between atoms: _7  and  _8
REMARK    6  A    between atoms: _8  and  _9
REMARK    7  A    between atoms: _9  and  _10
REMARK    8  A    between atoms: _14  and  _16
REMARK    9  A    between atoms: _16  and  _17
REMARK   10  A    between atoms: _16  and  _19
REMARK   11  A    between atoms: _19  and  _20
REMARK   12  A    between atoms: _20  and  _21
REMARK   13  A    between atoms: _26  and  _28
REMARK   14  A    between atoms: _28  and  _29
REMARK   15  A    between atoms: _31  and  _33
REMARK   16  A    between atoms: _33  and  _34
REMARK   17  A    between atoms: _36  and  _38
REMARK   18  A    between atoms: _38  and  _39
REMARK   19  A    between atoms: _38  and  _41
REMARK   20  A    between atoms: _41  and  _42
REMARK   21  A    between atoms: _45  and  _47
REMARK   22  A    between atoms: _47  and  _48
REMARK   23  A    between atoms: _47  and  _50
REMARK   24  A    between atoms: _53  and  _55
REMARK   25  A    between atoms: _55  and  _56
REMARK   26  A    between atoms: _55  and  _58
REMARK   27  A    between atoms: _58  and  _59
REMARK   28  A    between atoms: _59  and  _60
REMARK   29  A    between atoms: _60  and  _61
REMARK   30  A    between atoms: _61  and  _62
REMARK   31  A    between atoms: _66  and  _68
REMARK   32  A    between atoms: _68  and  _69
REMARK   33  A    between atoms: _68  and  _71
REMARK   34  A    between atoms: _71  and  _72
REMARK   35  A    between atoms: _75  and  _77
REMARK   36  A    between atoms: _77  and  _78
REMARK   37  A    between atoms: _77  and  _80
REMARK   38  A    between atoms: _80  and  _81
REMARK   39  A    between atoms: _91  and  _93
REMARK   40  A    between atoms: _93  and  _94
REMARK   41  A    between atoms: _93  and  _96
REMARK   42  A    between atoms: _96  and  _97
REMARK   43  A    between atoms: _97  and  _98
REMARK   44  A    between atoms: _98  and  _99
REMARK   45  A    between atoms: _99  and  _100
REMARK   46  A    between atoms: _104  and  _106
REMARK   47  A    between atoms: _106  and  _107
REMARK   48  A    between atoms: _106  and  _109
REMARK   49  A    between atoms: _109  and  _110
REMARK   50  A    between atoms: _113  and  _115
REMARK   51  A    between atoms: _115  and  _116
REMARK   52  A    between atoms: _115  and  _118
REMARK   53  A    between atoms: _118  and  _119
REMARK   54  A    between atoms: _119  and  _120
REMARK   55  A    between atoms: _120  and  _121
REMARK   56  A    between atoms: _130  and  _132
REMARK   57  A    between atoms: _132  and  _133
REMARK   58  A    between atoms: _132  and  _135
REMARK   59  A    between atoms: _135  and  _136
REMARK   60  A    between atoms: _146  and  _148
REMARK   61  A    between atoms: _148  and  _149
REMARK   62  A    between atoms: _148  and  _151
REMARK   63  A    between atoms: _151  and  _152
REMARK   64  A    between atoms: _158  and  _160
REMARK   65  A    between atoms: _160  and  _161
REMARK   66  A    between atoms: _160  and  _163
REMARK   67  A    between atoms: _163  and  _164
REMARK   68  A    between atoms: _169  and  _170
REMARK   69  A    between atoms: _172  and  _174
REMARK   70  A    between atoms: _174  and  _175
REMARK   71  A    between atoms: _174  and  _177
REMARK   72  A    between atoms: _177  and  _178
REMARK   73  A    between atoms: _184  and  _186
REMARK   74  A    between atoms: _186  and  _187
REMARK   75  A    between atoms: _186  and  _189
REMARK   76  A    between atoms: _189  and  _190
REMARK   77  A    between atoms: _190  and  _191
REMARK   78  A    between atoms: _191  and  _192
REMARK   79  A    between atoms: _192  and  _193
REMARK   80  A    between atoms: _197  and  _199
REMARK   81  A    between atoms: _199  and  _200
REMARK   82  A    between atoms: _199  and  _202
REMARK   83  A    between atoms: _202  and  _203
REMARK   84  A    between atoms: _206  and  _208
REMARK   85  A    between atoms: _208  and  _209
REMARK   86  A    between atoms: _208  and  _211
REMARK   87  A    between atoms: _211  and  _212
REMARK   88  A    between atoms: _212  and  _213
REMARK   89  A    between atoms: _213  and  _214
REMARK   90  A    between atoms: _223  and  _225
REMARK   91  A    between atoms: _225  and  _226
REMARK   92  A    between atoms: _225  and  _228
REMARK   93  A    between atoms: _228  and  _229
REMARK   94  A    between atoms: _229  and  _230
REMARK   95  A    between atoms: _230  and  _231
REMARK   96  A    between atoms: _240  and  _242
REMARK   97  A    between atoms: _242  and  _243
REMARK   98  A    between atoms: _242  and  _245
REMARK   99  A    between atoms: _245  and  _246
REMARK  100  A    between atoms: _252  and  _254
REMARK  101  A    between atoms: _254  and  _255
REMARK  102  A    between atoms: _254  and  _257
REMARK  103  A    between atoms: _257  and  _258
REMARK  104  A    between atoms: _263  and  _264
REMARK                            x       y       z     vdW  Elec       q    Type
REMARK                         _______ _______ _______ _____ _____    ______ ____
ROOT
ATOM      1  O   HOH     1      27.682  -3.676  15.972  0.00  0.00    +0.000 OA
ENDROOT
TORSDOF 0
REMARK  Name = ../refined-set-2016/1fao/1fao_pocket.pdb
REMARK  104 active torsions:
REMARK  status: ('A' for Active; 'I' for Inactive)
REMARK    1  A    between atoms: _1  and  _3
REMARK    2  A    between atoms: _3  and  _4
REMARK    3  A    between atoms: _3  and  _6
REMARK    4  A    between atoms: _6  and  _7
REMARK    5  A    between atoms: _7  and  _8
REMARK    6  A    between atoms: _8  and  _9
REMARK    7  A    between atoms: _9  and  _10
REMARK    8  A    between atoms: _14  and  _16
REMARK    9  A    between atoms: _16  and  _17
REMARK   10  A    between atoms: _16  and  _19
REMARK   11  A    between atoms: _19  and  _20
REMARK   12  A    between atoms: _20  and  _21
REMARK   13  A    between atoms: _26  and  _28
REMARK   14  A    between atoms: _28  and  _29
REMARK   15  A    between atoms: _31  and  _33
REMARK   16  A    between atoms: _33  and  _34
REMARK   17  A    between atoms: _36  and  _38
REMARK   18  A    between atoms: _38  and  _39
REMARK   19  A    between atoms: _38  and  _41
REMARK   20  A    between atoms: _41  and  _42
REMARK   21  A    between atoms: _45  and  _47
REMARK   22  A    between atoms: _47  and  _48
REMARK   23  A    between atoms: _47  and  _50
REMARK   24  A    between atoms: _53  and  _55
REMARK   25  A    between atoms: _55  and  _56
REMARK   26  A    between atoms: _55  and  _58
REMARK   27  A    between atoms: _58  and  _59
REMARK   28  A    between atoms: _59  and  _60
REMARK   29  A    between atoms: _60  and  _61
REMARK   30  A    between atoms: _61  and  _62
REMARK   31  A    between atoms: _66  and  _68
REMARK   32  A    between atoms: _68  and  _69
REMARK   33  A    between atoms: _68  and  _71
REMARK   34  A    between atoms: _71  and  _72
REMARK   35  A    between atoms: _75  and  _77
REMARK   36  A    between atoms: _77  and  _78
REMARK   37  A    between atoms: _77  and  _80
REMARK   38  A    between atoms: _80  and  _81
REMARK   39  A    between atoms: _91  and  _93
REMARK   40  A    between atoms: _93  and  _94
REMARK   41  A    between atoms: _93  and  _96
REMARK   42  A    between atoms: _96  and  _97
REMARK   43  A    between atoms: _97  and  _98
REMARK   44  A    between atoms: _98  and  _99
REMARK   45  A    between atoms: _99  and  _100
REMARK   46  A    between atoms: _104  and  _106
REMARK   47  A    between atoms: _106  and  _107
REMARK   48  A    between atoms: _106  and  _109
REMARK   49  A    between atoms: _109  and  _110
REMARK   50  A    between atoms: _113  and  _115
REMARK   51  A    between atoms: _115  and  _116
REMARK   52  A    between atoms: _115  and  _118
REMARK   53  A    between atoms: _118  and  _119
REMARK   54  A    between atoms: _119  and  _120
REMARK   55  A    between atoms: _120  and  _121
REMARK   56  A    between atoms: _130  and  _132
REMARK   57  A    between atoms: _132  and  _133
REMARK   58  A    between atoms: _132  and  _135
REMARK   59  A    between atoms: _135  and  _136
REMARK   60  A    between atoms: _146  and  _148
REMARK   61  A    between atoms: _148  and  _149
REMARK   62  A    between atoms: _148  and  _151
REMARK   63  A    between atoms: _151  and  _152
REMARK   64  A    between atoms: _158  and  _160
REMARK   65  A    between atoms: _160  and  _161
REMARK   66  A    between atoms: _160  and  _163
REMARK   67  A    between atoms: _163  and  _164
REMARK   68  A    between atoms: _169  and  _170
REMARK   69  A    between atoms: _172  and  _174
REMARK   70  A    between atoms: _174  and  _175
REMARK   71  A    between atoms: _174  and  _177
REMARK   72  A    between atoms: _177  and  _178
REMARK   73  A    between atoms: _184  and  _186
REMARK   74  A    between atoms: _186  and  _187
REMARK   75  A    between atoms: _186  and  _189
REMARK   76  A    between atoms: _189  and  _190
REMARK   77  A    between atoms: _190  and  _191
REMARK   78  A    between atoms: _191  and  _192
REMARK   79  A    between atoms: _192  and  _193
REMARK   80  A    between atoms: _197  and  _199
REMARK   81  A    between atoms: _199  and  _200
REMARK   82  A    between atoms: _199  and  _202
REMARK   83  A    between atoms: _202  and  _203
REMARK   84  A    between atoms: _206  and  _208
REMARK   85  A    between atoms: _208  and  _209
REMARK   86  A    between atoms: _208  and  _211
REMARK   87  A    between atoms: _211  and  _212
REMARK   88  A    between atoms: _212  and  _213
REMARK   89  A    between atoms: _213  and  _214
REMARK   90  A    between atoms: _223  and  _225
REMARK   91  A    between atoms: _225  and  _226
REMARK   92  A    between atoms: _225  and  _228
REMARK   93  A    between atoms: _228  and  _229
REMARK   94  A    between atoms: _229  and  _230
REMARK   95  A    between atoms: _230  and  _231
REMARK   96  A    between atoms: _240  and  _242
REMARK   97  A    between atoms: _242  and  _243
REMARK   98  A    between atoms: _242  and  _245
REMARK   99  A    between atoms: _245  and  _246
REMARK  100  A    between atoms: _252  and  _254
REMARK  101  A    between atoms: _254  and  _255
REMARK  102  A    between atoms: _254  and  _257
REMARK  103  A    between atoms: _257  and  _258
REMARK  104  A    between atoms: _263  and  _264
REMARK                            x       y       z     vdW  Elec       q    Type
REMARK                         _______ _______ _______ _____ _____    ______ ____
ROOT
ATOM      1  O   HOH     1      22.519   7.380   6.597  0.00  0.00    +0.000 OA
ENDROOT
TORSDOF 0
REMARK  Name = ../refined-set-2016/1fao/1fao_pocket.pdb
REMARK  104 active torsions:
REMARK  status: ('A' for Active; 'I' for Inactive)
REMARK    1  A    between atoms: _1  and  _3
REMARK    2  A    between atoms: _3  and  _4
REMARK    3  A    between atoms: _3  and  _6
REMARK    4  A    between atoms: _6  and  _7
REMARK    5  A    between atoms: _7  and  _8
REMARK    6  A    between atoms: _8  and  _9
REMARK    7  A    between atoms: _9  and  _10
REMARK    8  A    between atoms: _14  and  _16
REMARK    9  A    between atoms: _16  and  _17
REMARK   10  A    between atoms: _16  and  _19
REMARK   11  A    between atoms: _19  and  _20
REMARK   12  A    between atoms: _20  and  _21
REMARK   13  A    between atoms: _26  and  _28
REMARK   14  A    between atoms: _28  and  _29
REMARK   15  A    between atoms: _31  and  _33
REMARK   16  A    between atoms: _33  and  _34
REMARK   17  A    between atoms: _36  and  _38
REMARK   18  A    between atoms: _38  and  _39
REMARK   19  A    between atoms: _38  and  _41
REMARK   20  A    between atoms: _41  and  _42
REMARK   21  A    between atoms: _45  and  _47
REMARK   22  A    between atoms: _47  and  _48
REMARK   23  A    between atoms: _47  and  _50
REMARK   24  A    between atoms: _53  and  _55
REMARK   25  A    between atoms: _55  and  _56
REMARK   26  A    between atoms: _55  and  _58
REMARK   27  A    between atoms: _58  and  _59
REMARK   28  A    between atoms: _59  and  _60
REMARK   29  A    between atoms: _60  and  _61
REMARK   30  A    between atoms: _61  and  _62
REMARK   31  A    between atoms: _66  and  _68
REMARK   32  A    between atoms: _68  and  _69
REMARK   33  A    between atoms: _68  and  _71
REMARK   34  A    between atoms: _71  and  _72
REMARK   35  A    between atoms: _75  and  _77
REMARK   36  A    between atoms: _77  and  _78
REMARK   37  A    between atoms: _77  and  _80
REMARK   38  A    between atoms: _80  and  _81
REMARK   39  A    between atoms: _91  and  _93
REMARK   40  A    between atoms: _93  and  _94
REMARK   41  A    between atoms: _93  and  _96
REMARK   42  A    between atoms: _96  and  _97
REMARK   43  A    between atoms: _97  and  _98
REMARK   44  A    between atoms: _98  and  _99
REMARK   45  A    between atoms: _99  and  _100
REMARK   46  A    between atoms: _104  and  _106
REMARK   47  A    between atoms: _106  and  _107
REMARK   48  A    between atoms: _106  and  _109
REMARK   49  A    between atoms: _109  and  _110
REMARK   50  A    between atoms: _113  and  _115
REMARK   51  A    between atoms: _115  and  _116
REMARK   52  A    between atoms: _115  and  _118
REMARK   53  A    between atoms: _118  and  _119
REMARK   54  A    between atoms: _119  and  _120
REMARK   55  A    between atoms: _120  and  _121
REMARK   56  A    between atoms: _130  and  _132
REMARK   57  A    between atoms: _132  and  _133
REMARK   58  A    between atoms: _132  and  _135
REMARK   59  A    between atoms: _135  and  _136
REMARK   60  A    between atoms: _146  and  _148
REMARK   61  A    between atoms: _148  and  _149
REMARK   62  A    between atoms: _148  and  _151
REMARK   63  A    between atoms: _151  and  _152
REMARK   64  A    between atoms: _158  and  _160
REMARK   65  A    between atoms: _160  and  _161
REMARK   66  A    between atoms: _160  and  _163
REMARK   67  A    between atoms: _163  and  _164
REMARK   68  A    between atoms: _169  and  _170
REMARK   69  A    between atoms: _172  and  _174
REMARK   70  A    between atoms: _174  and  _175
REMARK   71  A    between atoms: _174  and  _177
REMARK   72  A    between atoms: _177  and  _178
REMARK   73  A    between atoms: _184  and  _186
REMARK   74  A    between atoms: _186  and  _187
REMARK   75  A    between atoms: _186  and  _189
REMARK   76  A    between atoms: _189  and  _190
REMARK   77  A    between atoms: _190  and  _191
REMARK   78  A    between atoms: _191  and  _192
REMARK   79  A    between atoms: _192  and  _193
REMARK   80  A    between atoms: _197  and  _199
REMARK   81  A    between atoms: _199  and  _200
REMARK   82  A    between atoms: _199  and  _202
REMARK   83  A    between atoms: _202  and  _203
REMARK   84  A    between atoms: _206  and  _208
REMARK   85  A    between atoms: _208  and  _209
REMARK   86  A    between atoms: _208  and  _211
REMARK   87  A    between atoms: _211  and  _212
REMARK   88  A    between atoms: _212  and  _213
REMARK   89  A    between atoms: _213  and  _214
REMARK   90  A    between atoms: _223  and  _225
REMARK   91  A    between atoms: _225  and  _226
REMARK   92  A    between atoms: _225  and  _228
REMARK   93  A    between atoms: _228  and  _229
REMARK   94  A    between atoms: _229  and  _230
REMARK   95  A    between atoms: _230  and  _231
REMARK   96  A    between atoms: _240  and  _242
REMARK   97  A    between atoms: _242  and  _243
REMARK   98  A    between atoms: _242  and  _245
REMARK   99  A    between atoms: _245  and  _246
REMARK  100  A    between atoms: _252  and  _254
REMARK  101  A    between atoms: _254  and  _255
REMARK  102  A    between atoms: _254  and  _257
REMARK  103  A    between atoms: _257  and  _258
REMARK  104  A    between atoms: _263  and  _264
REMARK                            x       y       z     vdW  Elec       q    Type
REMARK                         _______ _______ _______ _____ _____    ______ ____
ROOT
ATOM      1  O   HOH     1      28.412   5.720   4.976  0.00  0.00    +0.000 OA
ENDROOT
TORSDOF 0
