REMARK  Name = ../refined-set-2016/1zge/1zge_pocket.pdb
REMARK  145 active torsions:
REMARK  status: ('A' for Active; 'I' for Inactive)
REMARK    1  A    between atoms: _1  and  _3
REMARK    2  A    between atoms: _3  and  _4
REMARK    3  A    between atoms: _3  and  _6
REMARK    4  A    between atoms: _6  and  _7
REMARK    5  A    between atoms: _17  and  _19
REMARK    6  A    between atoms: _19  and  _20
REMARK    7  A    between atoms: _19  and  _22
REMARK    8  A    between atoms: _22  and  _23
REMARK    9  A    between atoms: _28  and  _29
REMARK   10  A    between atoms: _31  and  _33
REMARK   11  A    between atoms: _33  and  _34
REMARK   12  A    between atoms: _33  and  _36
REMARK   13  A    between atoms: _36  and  _37
REMARK   14  A    between atoms: _40  and  _41
REMARK   15  A    between atoms: _46  and  _48
REMARK   16  A    between atoms: _48  and  _49
REMARK   17  A    between atoms: _48  and  _51
REMARK   18  A    between atoms: _51  and  _52
REMARK   19  A    between atoms: _57  and  _59
REMARK   20  A    between atoms: _59  and  _60
REMARK   21  A    between atoms: _59  and  _62
REMARK   22  A    between atoms: _62  and  _63
REMARK   23  A    between atoms: _68  and  _70
REMARK   24  A    between atoms: _70  and  _71
REMARK   25  A    between atoms: _74  and  _76
REMARK   26  A    between atoms: _76  and  _77
REMARK   27  A    between atoms: _76  and  _79
REMARK   28  A    between atoms: _79  and  _80
REMARK   29  A    between atoms: _85  and  _87
REMARK   30  A    between atoms: _87  and  _88
REMARK   31  A    between atoms: _87  and  _90
REMARK   32  A    between atoms: _90  and  _91
REMARK   33  A    between atoms: _94  and  _96
REMARK   34  A    between atoms: _96  and  _97
REMARK   35  A    between atoms: _96  and  _99
REMARK   36  A    between atoms: _99  and  _100
REMARK   37  A    between atoms: _100  and  _101
REMARK   38  A    between atoms: _106  and  _108
REMARK   39  A    between atoms: _108  and  _109
REMARK   40  A    between atoms: _108  and  _111
REMARK   41  A    between atoms: _111  and  _112
REMARK   42  A    between atoms: _118  and  _120
REMARK   43  A    between atoms: _131  and  _134
REMARK   44  A    between atoms: _134  and  _135
REMARK   45  A    between atoms: _143  and  _144
REMARK   46  A    between atoms: _152  and  _154
REMARK   47  A    between atoms: _154  and  _155
REMARK   48  A    between atoms: _154  and  _157
REMARK   49  A    between atoms: _157  and  _158
REMARK   50  A    between atoms: _158  and  _159
REMARK   51  A    between atoms: _162  and  _164
REMARK   52  A    between atoms: _164  and  _165
REMARK   53  A    between atoms: _164  and  _167
REMARK   54  A    between atoms: _167  and  _168
REMARK   55  A    between atoms: _173  and  _175
REMARK   56  A    between atoms: _175  and  _176
REMARK   57  A    between atoms: _175  and  _178
REMARK   58  A    between atoms: _178  and  _179
REMARK   59  A    between atoms: _179  and  _180
REMARK   60  A    between atoms: _183  and  _185
REMARK   61  A    between atoms: _185  and  _186
REMARK   62  A    between atoms: _185  and  _188
REMARK   63  A    between atoms: _188  and  _189
REMARK   64  A    between atoms: _192  and  _194
REMARK   65  A    between atoms: _194  and  _195
REMARK   66  A    between atoms: _194  and  _197
REMARK   67  A    between atoms: _197  and  _198
REMARK   68  A    between atoms: _199  and  ZN_409
REMARK   69  A    between atoms: _203  and  _205
REMARK   70  A    between atoms: _205  and  _206
REMARK   71  A    between atoms: _205  and  _208
REMARK   72  A    between atoms: _208  and  _209
REMARK   73  A    between atoms: _212  and  _214
REMARK   74  A    between atoms: _214  and  _215
REMARK   75  A    between atoms: _214  and  _217
REMARK   76  A    between atoms: _220  and  _222
REMARK   77  A    between atoms: _222  and  _223
REMARK   78  A    between atoms: _222  and  _225
REMARK   79  A    between atoms: _225  and  _226
REMARK   80  A    between atoms: _231  and  _233
REMARK   81  A    between atoms: _233  and  _234
REMARK   82  A    between atoms: _233  and  _236
REMARK   83  A    between atoms: _236  and  _237
REMARK   84  A    between atoms: _243  and  _245
REMARK   85  A    between atoms: _245  and  _246
REMARK   86  A    between atoms: _245  and  _248
REMARK   87  A    between atoms: _251  and  _253
REMARK   88  A    between atoms: _253  and  _254
REMARK   89  A    between atoms: _253  and  _256
REMARK   90  A    between atoms: _256  and  _257
REMARK   91  A    between atoms: _260  and  _262
REMARK   92  A    between atoms: _262  and  _263
REMARK   93  A    between atoms: _266  and  _268
REMARK   94  A    between atoms: _268  and  _269
REMARK   95  A    between atoms: _268  and  _271
REMARK   96  A    between atoms: _274  and  _276
REMARK   97  A    between atoms: _276  and  _277
REMARK   98  A    between atoms: _276  and  _279
REMARK   99  A    between atoms: _279  and  _280
REMARK  100  A    between atoms: _283  and  _285
REMARK  101  A    between atoms: _285  and  _286
REMARK  102  A    between atoms: _285  and  _288
REMARK  103  A    between atoms: _288  and  _289
REMARK  104  A    between atoms: _291  and  _293
REMARK  105  A    between atoms: _293  and  _294
REMARK  106  A    between atoms: _293  and  _296
REMARK  107  A    between atoms: _296  and  _297
REMARK  108  A    between atoms: _300  and  _302
REMARK  109  A    between atoms: _302  and  _303
REMARK  110  A    between atoms: _302  and  _305
REMARK  111  A    between atoms: _305  and  _306
REMARK  112  A    between atoms: _309  and  _311
REMARK  113  A    between atoms: _311  and  _312
REMARK  114  A    between atoms: _311  and  _314
REMARK  115  A    between atoms: _314  and  _315
REMARK  116  A    between atoms: _319  and  _320
REMARK  117  A    between atoms: _326  and  _327
REMARK  118  A    between atoms: _332  and  _334
REMARK  119  A    between atoms: _334  and  _335
REMARK  120  A    between atoms: _334  and  _337
REMARK  121  A    between atoms: _337  and  _338
REMARK  122  A    between atoms: _341  and  _343
REMARK  123  A    between atoms: _343  and  _344
REMARK  124  A    between atoms: _343  and  _346
REMARK  125  A    between atoms: _346  and  _347
REMARK  126  A    between atoms: _350  and  _352
REMARK  127  A    between atoms: _352  and  _353
REMARK  128  A    between atoms: _352  and  _355
REMARK  129  A    between atoms: _357  and  _359
REMARK  130  A    between atoms: _359  and  _360
REMARK  131  A    between atoms: _359  and  _362
REMARK  132  A    between atoms: _365  and  _367
REMARK  133  A    between atoms: _367  and  _368
REMARK  134  A    between atoms: _367  and  _370
REMARK  135  A    between atoms: _370  and  _371
REMARK  136  A    between atoms: _381  and  _383
REMARK  137  A    between atoms: _383  and  _384
REMARK  138  A    between atoms: _383  and  _386
REMARK  139  A    between atoms: _386  and  _387
REMARK  140  A    between atoms: _392  and  _394
REMARK  141  A    between atoms: _394  and  _395
REMARK  142  A    between atoms: _394  and  _397
REMARK  143  A    between atoms: _397  and  _398
REMARK  144  A    between atoms: _398  and  _399
REMARK  145  A    between atoms: _399  and  _400
REMARK                            x       y       z     vdW  Elec       q    Type
REMARK                         _______ _______ _______ _____ _____    ______ ____
ROOT
ATOM      1  CG  TRP A   1      27.094   1.707  11.997  0.00  0.00    -0.002 A 
ATOM      2  CD2 TRP A   1      25.733   1.228  11.994  0.00  0.00    +0.013 A 
ATOM      3  CE3 TRP A   1      25.197  -0.027  12.277  0.00  0.00    +0.001 A 
ATOM      4  CZ3 TRP A   1      23.828  -0.183  12.187  0.00  0.00    +0.000 A 
ATOM      5  CH2 TRP A   1      22.986   0.875  11.825  0.00  0.00    +0.001 A 
ATOM      6  CZ2 TRP A   1      23.490   2.109  11.535  0.00  0.00    +0.017 A 
ATOM      7  CE2 TRP A   1      24.882   2.284  11.625  0.00  0.00    +0.056 A 
ATOM      8  NE1 TRP A   1      25.690   3.360  11.411  0.00  0.00    -0.352 N 
ATOM      9  HE1 TRP A   1      25.364   4.304  11.121  0.00  0.00    +0.166 HD
ATOM     10  CD1 TRP A   1      27.003   3.010  11.637  0.00  0.00    +0.068 A 
ENDROOT
BRANCH   1  11
ATOM     11  CB  TRP A   1      28.271   0.860  12.341  0.00  0.00    +0.053 C 
BRANCH  11  12
ATOM     12  CA  TRP A   1      28.960   0.106  11.206  0.00  0.00    +0.137 C 
BRANCH  12  13
ATOM     13  N   TRP A   1      29.635   1.025  10.291  0.00  0.00    -0.239 NA
ATOM     14  H   TRP A   1      29.475   2.051  10.354  0.00  0.00    +0.142 HD
ENDBRANCH  12  13
BRANCH  12  15
ATOM     15  C   TRP A   1      27.916  -0.720  10.470  0.00  0.00    +0.224 C 
ATOM     16  O   TRP A   1      27.315  -0.297   9.479  0.00  0.00    -0.287 OA
ENDBRANCH  12  15
ENDBRANCH  11  12
ENDBRANCH   1  11
TORSDOF 4
REMARK  Name = ../refined-set-2016/1zge/1zge_pocket.pdb
REMARK  145 active torsions:
REMARK  status: ('A' for Active; 'I' for Inactive)
REMARK    1  A    between atoms: _1  and  _3
REMARK    2  A    between atoms: _3  and  _4
REMARK    3  A    between atoms: _3  and  _6
REMARK    4  A    between atoms: _6  and  _7
REMARK    5  A    between atoms: _17  and  _19
REMARK    6  A    between atoms: _19  and  _20
REMARK    7  A    between atoms: _19  and  _22
REMARK    8  A    between atoms: _22  and  _23
REMARK    9  A    between atoms: _28  and  _29
REMARK   10  A    between atoms: _31  and  _33
REMARK   11  A    between atoms: _33  and  _34
REMARK   12  A    between atoms: _33  and  _36
REMARK   13  A    between atoms: _36  and  _37
REMARK   14  A    between atoms: _40  and  _41
REMARK   15  A    between atoms: _46  and  _48
REMARK   16  A    between atoms: _48  and  _49
REMARK   17  A    between atoms: _48  and  _51
REMARK   18  A    between atoms: _51  and  _52
REMARK   19  A    between atoms: _57  and  _59
REMARK   20  A    between atoms: _59  and  _60
REMARK   21  A    between atoms: _59  and  _62
REMARK   22  A    between atoms: _62  and  _63
REMARK   23  A    between atoms: _68  and  _70
REMARK   24  A    between atoms: _70  and  _71
REMARK   25  A    between atoms: _74  and  _76
REMARK   26  A    between atoms: _76  and  _77
REMARK   27  A    between atoms: _76  and  _79
REMARK   28  A    between atoms: _79  and  _80
REMARK   29  A    between atoms: _85  and  _87
REMARK   30  A    between atoms: _87  and  _88
REMARK   31  A    between atoms: _87  and  _90
REMARK   32  A    between atoms: _90  and  _91
REMARK   33  A    between atoms: _94  and  _96
REMARK   34  A    between atoms: _96  and  _97
REMARK   35  A    between atoms: _96  and  _99
REMARK   36  A    between atoms: _99  and  _100
REMARK   37  A    between atoms: _100  and  _101
REMARK   38  A    between atoms: _106  and  _108
REMARK   39  A    between atoms: _108  and  _109
REMARK   40  A    between atoms: _108  and  _111
REMARK   41  A    between atoms: _111  and  _112
REMARK   42  A    between atoms: _118  and  _120
REMARK   43  A    between atoms: _131  and  _134
REMARK   44  A    between atoms: _134  and  _135
REMARK   45  A    between atoms: _143  and  _144
REMARK   46  A    between atoms: _152  and  _154
REMARK   47  A    between atoms: _154  and  _155
REMARK   48  A    between atoms: _154  and  _157
REMARK   49  A    between atoms: _157  and  _158
REMARK   50  A    between atoms: _158  and  _159
REMARK   51  A    between atoms: _162  and  _164
REMARK   52  A    between atoms: _164  and  _165
REMARK   53  A    between atoms: _164  and  _167
REMARK   54  A    between atoms: _167  and  _168
REMARK   55  A    between atoms: _173  and  _175
REMARK   56  A    between atoms: _175  and  _176
REMARK   57  A    between atoms: _175  and  _178
REMARK   58  A    between atoms: _178  and  _179
REMARK   59  A    between atoms: _179  and  _180
REMARK   60  A    between atoms: _183  and  _185
REMARK   61  A    between atoms: _185  and  _186
REMARK   62  A    between atoms: _185  and  _188
REMARK   63  A    between atoms: _188  and  _189
REMARK   64  A    between atoms: _192  and  _194
REMARK   65  A    between atoms: _194  and  _195
REMARK   66  A    between atoms: _194  and  _197
REMARK   67  A    between atoms: _197  and  _198
REMARK   68  A    between atoms: _199  and  ZN_409
REMARK   69  A    between atoms: _203  and  _205
REMARK   70  A    between atoms: _205  and  _206
REMARK   71  A    between atoms: _205  and  _208
REMARK   72  A    between atoms: _208  and  _209
REMARK   73  A    between atoms: _212  and  _214
REMARK   74  A    between atoms: _214  and  _215
REMARK   75  A    between atoms: _214  and  _217
REMARK   76  A    between atoms: _220  and  _222
REMARK   77  A    between atoms: _222  and  _223
REMARK   78  A    between atoms: _222  and  _225
REMARK   79  A    between atoms: _225  and  _226
REMARK   80  A    between atoms: _231  and  _233
REMARK   81  A    between atoms: _233  and  _234
REMARK   82  A    between atoms: _233  and  _236
REMARK   83  A    between atoms: _236  and  _237
REMARK   84  A    between atoms: _243  and  _245
REMARK   85  A    between atoms: _245  and  _246
REMARK   86  A    between atoms: _245  and  _248
REMARK   87  A    between atoms: _251  and  _253
REMARK   88  A    between atoms: _253  and  _254
REMARK   89  A    between atoms: _253  and  _256
REMARK   90  A    between atoms: _256  and  _257
REMARK   91  A    between atoms: _260  and  _262
REMARK   92  A    between atoms: _262  and  _263
REMARK   93  A    between atoms: _266  and  _268
REMARK   94  A    between atoms: _268  and  _269
REMARK   95  A    between atoms: _268  and  _271
REMARK   96  A    between atoms: _274  and  _276
REMARK   97  A    between atoms: _276  and  _277
REMARK   98  A    between atoms: _276  and  _279
REMARK   99  A    between atoms: _279  and  _280
REMARK  100  A    between atoms: _283  and  _285
REMARK  101  A    between atoms: _285  and  _286
REMARK  102  A    between atoms: _285  and  _288
REMARK  103  A    between atoms: _288  and  _289
REMARK  104  A    between atoms: _291  and  _293
REMARK  105  A    between atoms: _293  and  _294
REMARK  106  A    between atoms: _293  and  _296
REMARK  107  A    between atoms: _296  and  _297
REMARK  108  A    between atoms: _300  and  _302
REMARK  109  A    between atoms: _302  and  _303
REMARK  110  A    between atoms: _302  and  _305
REMARK  111  A    between atoms: _305  and  _306
REMARK  112  A    between atoms: _309  and  _311
REMARK  113  A    between atoms: _311  and  _312
REMARK  114  A    between atoms: _311  and  _314
REMARK  115  A    between atoms: _314  and  _315
REMARK  116  A    between atoms: _319  and  _320
REMARK  117  A    between atoms: _326  and  _327
REMARK  118  A    between atoms: _332  and  _334
REMARK  119  A    between atoms: _334  and  _335
REMARK  120  A    between atoms: _334  and  _337
REMARK  121  A    between atoms: _337  and  _338
REMARK  122  A    between atoms: _341  and  _343
REMARK  123  A    between atoms: _343  and  _344
REMARK  124  A    between atoms: _343  and  _346
REMARK  125  A    between atoms: _346  and  _347
REMARK  126  A    between atoms: _350  and  _352
REMARK  127  A    between atoms: _352  and  _353
REMARK  128  A    between atoms: _352  and  _355
REMARK  129  A    between atoms: _357  and  _359
REMARK  130  A    between atoms: _359  and  _360
REMARK  131  A    between atoms: _359  and  _362
REMARK  132  A    between atoms: _365  and  _367
REMARK  133  A    between atoms: _367  and  _368
REMARK  134  A    between atoms: _367  and  _370
REMARK  135  A    between atoms: _370  and  _371
REMARK  136  A    between atoms: _381  and  _383
REMARK  137  A    between atoms: _383  and  _384
REMARK  138  A    between atoms: _383  and  _386
REMARK  139  A    between atoms: _386  and  _387
REMARK  140  A    between atoms: _392  and  _394
REMARK  141  A    between atoms: _394  and  _395
REMARK  142  A    between atoms: _394  and  _397
REMARK  143  A    between atoms: _397  and  _398
REMARK  144  A    between atoms: _398  and  _399
REMARK  145  A    between atoms: _399  and  _400
REMARK                            x       y       z     vdW  Elec       q    Type
REMARK                         _______ _______ _______ _____ _____    ______ ____
ROOT
ATOM      1  CG  TYR A   1      23.254  -5.451  11.974  0.00  0.00    -0.020 A 
ATOM      2  CD2 TYR A   1      22.758  -5.418  13.263  0.00  0.00    -0.001 A 
ATOM      3  CE2 TYR A   1      21.894  -4.440  13.726  0.00  0.00    +0.036 A 
ATOM      4  CZ  TYR A   1      21.510  -3.450  12.846  0.00  0.00    +0.134 A 
ATOM      5  CE1 TYR A   1      21.995  -3.456  11.548  0.00  0.00    +0.036 A 
ATOM      6  CD1 TYR A   1      22.858  -4.440  11.112  0.00  0.00    -0.001 A 
ENDROOT
BRANCH   4   7
ATOM      7  OH  TYR A   1      20.663  -2.456  13.266  0.00  0.00    -0.506 OA
ATOM      8  HH  TYR A   1      20.419  -2.610  14.213  0.00  0.00    +0.292 HD
ENDBRANCH   4   7
BRANCH   1   9
ATOM      9  CB  TYR A   1      24.204  -6.561  11.537  0.00  0.00    +0.051 C 
BRANCH   9  10
ATOM     10  CA  TYR A   1      25.675  -6.189  11.786  0.00  0.00    +0.137 C 
BRANCH  10  11
ATOM     11  N   TYR A   1      26.046  -5.099  10.890  0.00  0.00    -0.239 NA
ATOM     12  H   TYR A   1      26.089  -5.249   9.862  0.00  0.00    +0.142 HD
ENDBRANCH  10  11
BRANCH  10  13
ATOM     13  C   TYR A   1      26.631  -7.372  11.624  0.00  0.00    +0.224 C 
ATOM     14  O   TYR A   1      26.420  -8.434  12.202  0.00  0.00    -0.287 OA
ENDBRANCH  10  13
ENDBRANCH   9  10
ENDBRANCH   1   9
TORSDOF 5
REMARK  Name = ../refined-set-2016/1zge/1zge_pocket.pdb
REMARK  145 active torsions:
REMARK  status: ('A' for Active; 'I' for Inactive)
REMARK    1  A    between atoms: _1  and  _3
REMARK    2  A    between atoms: _3  and  _4
REMARK    3  A    between atoms: _3  and  _6
REMARK    4  A    between atoms: _6  and  _7
REMARK    5  A    between atoms: _17  and  _19
REMARK    6  A    between atoms: _19  and  _20
REMARK    7  A    between atoms: _19  and  _22
REMARK    8  A    between atoms: _22  and  _23
REMARK    9  A    between atoms: _28  and  _29
REMARK   10  A    between atoms: _31  and  _33
REMARK   11  A    between atoms: _33  and  _34
REMARK   12  A    between atoms: _33  and  _36
REMARK   13  A    between atoms: _36  and  _37
REMARK   14  A    between atoms: _40  and  _41
REMARK   15  A    between atoms: _46  and  _48
REMARK   16  A    between atoms: _48  and  _49
REMARK   17  A    between atoms: _48  and  _51
REMARK   18  A    between atoms: _51  and  _52
REMARK   19  A    between atoms: _57  and  _59
REMARK   20  A    between atoms: _59  and  _60
REMARK   21  A    between atoms: _59  and  _62
REMARK   22  A    between atoms: _62  and  _63
REMARK   23  A    between atoms: _68  and  _70
REMARK   24  A    between atoms: _70  and  _71
REMARK   25  A    between atoms: _74  and  _76
REMARK   26  A    between atoms: _76  and  _77
REMARK   27  A    between atoms: _76  and  _79
REMARK   28  A    between atoms: _79  and  _80
REMARK   29  A    between atoms: _85  and  _87
REMARK   30  A    between atoms: _87  and  _88
REMARK   31  A    between atoms: _87  and  _90
REMARK   32  A    between atoms: _90  and  _91
REMARK   33  A    between atoms: _94  and  _96
REMARK   34  A    between atoms: _96  and  _97
REMARK   35  A    between atoms: _96  and  _99
REMARK   36  A    between atoms: _99  and  _100
REMARK   37  A    between atoms: _100  and  _101
REMARK   38  A    between atoms: _106  and  _108
REMARK   39  A    between atoms: _108  and  _109
REMARK   40  A    between atoms: _108  and  _111
REMARK   41  A    between atoms: _111  and  _112
REMARK   42  A    between atoms: _118  and  _120
REMARK   43  A    between atoms: _131  and  _134
REMARK   44  A    between atoms: _134  and  _135
REMARK   45  A    between atoms: _143  and  _144
REMARK   46  A    between atoms: _152  and  _154
REMARK   47  A    between atoms: _154  and  _155
REMARK   48  A    between atoms: _154  and  _157
REMARK   49  A    between atoms: _157  and  _158
REMARK   50  A    between atoms: _158  and  _159
REMARK   51  A    between atoms: _162  and  _164
REMARK   52  A    between atoms: _164  and  _165
REMARK   53  A    between atoms: _164  and  _167
REMARK   54  A    between atoms: _167  and  _168
REMARK   55  A    between atoms: _173  and  _175
REMARK   56  A    between atoms: _175  and  _176
REMARK   57  A    between atoms: _175  and  _178
REMARK   58  A    between atoms: _178  and  _179
REMARK   59  A    between atoms: _179  and  _180
REMARK   60  A    between atoms: _183  and  _185
REMARK   61  A    between atoms: _185  and  _186
REMARK   62  A    between atoms: _185  and  _188
REMARK   63  A    between atoms: _188  and  _189
REMARK   64  A    between atoms: _192  and  _194
REMARK   65  A    between atoms: _194  and  _195
REMARK   66  A    between atoms: _194  and  _197
REMARK   67  A    between atoms: _197  and  _198
REMARK   68  A    between atoms: _199  and  ZN_409
REMARK   69  A    between atoms: _203  and  _205
REMARK   70  A    between atoms: _205  and  _206
REMARK   71  A    between atoms: _205  and  _208
REMARK   72  A    between atoms: _208  and  _209
REMARK   73  A    between atoms: _212  and  _214
REMARK   74  A    between atoms: _214  and  _215
REMARK   75  A    between atoms: _214  and  _217
REMARK   76  A    between atoms: _220  and  _222
REMARK   77  A    between atoms: _222  and  _223
REMARK   78  A    between atoms: _222  and  _225
REMARK   79  A    between atoms: _225  and  _226
REMARK   80  A    between atoms: _231  and  _233
REMARK   81  A    between atoms: _233  and  _234
REMARK   82  A    between atoms: _233  and  _236
REMARK   83  A    between atoms: _236  and  _237
REMARK   84  A    between atoms: _243  and  _245
REMARK   85  A    between atoms: _245  and  _246
REMARK   86  A    between atoms: _245  and  _248
REMARK   87  A    between atoms: _251  and  _253
REMARK   88  A    between atoms: _253  and  _254
REMARK   89  A    between atoms: _253  and  _256
REMARK   90  A    between atoms: _256  and  _257
REMARK   91  A    between atoms: _260  and  _262
REMARK   92  A    between atoms: _262  and  _263
REMARK   93  A    between atoms: _266  and  _268
REMARK   94  A    between atoms: _268  and  _269
REMARK   95  A    between atoms: _268  and  _271
REMARK   96  A    between atoms: _274  and  _276
REMARK   97  A    between atoms: _276  and  _277
REMARK   98  A    between atoms: _276  and  _279
REMARK   99  A    between atoms: _279  and  _280
REMARK  100  A    between atoms: _283  and  _285
REMARK  101  A    between atoms: _285  and  _286
REMARK  102  A    between atoms: _285  and  _288
REMARK  103  A    between atoms: _288  and  _289
REMARK  104  A    between atoms: _291  and  _293
REMARK  105  A    between atoms: _293  and  _294
REMARK  106  A    between atoms: _293  and  _296
REMARK  107  A    between atoms: _296  and  _297
REMARK  108  A    between atoms: _300  and  _302
REMARK  109  A    between atoms: _302  and  _303
REMARK  110  A    between atoms: _302  and  _305
REMARK  111  A    between atoms: _305  and  _306
REMARK  112  A    between atoms: _309  and  _311
REMARK  113  A    between atoms: _311  and  _312
REMARK  114  A    between atoms: _311  and  _314
REMARK  115  A    between atoms: _314  and  _315
REMARK  116  A    between atoms: _319  and  _320
REMARK  117  A    between atoms: _326  and  _327
REMARK  118  A    between atoms: _332  and  _334
REMARK  119  A    between atoms: _334  and  _335
REMARK  120  A    between atoms: _334  and  _337
REMARK  121  A    between atoms: _337  and  _338
REMARK  122  A    between atoms: _341  and  _343
REMARK  123  A    between atoms: _343  and  _344
REMARK  124  A    between atoms: _343  and  _346
REMARK  125  A    between atoms: _346  and  _347
REMARK  126  A    between atoms: _350  and  _352
REMARK  127  A    between atoms: _352  and  _353
REMARK  128  A    between atoms: _352  and  _355
REMARK  129  A    between atoms: _357  and  _359
REMARK  130  A    between atoms: _359  and  _360
REMARK  131  A    between atoms: _359  and  _362
REMARK  132  A    between atoms: _365  and  _367
REMARK  133  A    between atoms: _367  and  _368
REMARK  134  A    between atoms: _367  and  _370
REMARK  135  A    between atoms: _370  and  _371
REMARK  136  A    between atoms: _381  and  _383
REMARK  137  A    between atoms: _383  and  _384
REMARK  138  A    between atoms: _383  and  _386
REMARK  139  A    between atoms: _386  and  _387
REMARK  140  A    between atoms: _392  and  _394
REMARK  141  A    between atoms: _394  and  _395
REMARK  142  A    between atoms: _394  and  _397
REMARK  143  A    between atoms: _397  and  _398
REMARK  144  A    between atoms: _398  and  _399
REMARK  145  A    between atoms: _399  and  _400
REMARK                            x       y       z     vdW  Elec       q    Type
REMARK                         _______ _______ _______ _____ _____    ______ ____
ROOT
ATOM      1  C   SER A   1      18.841  -1.226  23.072  0.00  0.00    +0.244 C 
ATOM      2  N   PRO A   2      18.244  -2.389  22.872  0.00  0.00    -0.273 N 
ATOM      3  CA  PRO A   2      17.073  -2.896  23.611  0.00  0.00    +0.140 C 
ATOM      4  CB  PRO A   2      16.504  -3.929  22.617  0.00  0.00    +0.030 C 
ATOM      5  CG  PRO A   2      17.767  -4.531  22.062  0.00  0.00    +0.024 C 
ATOM      6  CD  PRO A   2      18.713  -3.365  21.865  0.00  0.00    +0.094 C 
ATOM      7  O   SER A   1      19.823  -0.867  22.408  0.00  0.00    -0.273 OA
ENDROOT
BRANCH   3   8
ATOM      8  C   PRO A   2      17.447  -3.568  24.922  0.00  0.00    +0.227 C 
ATOM      9  O   PRO A   2      18.645  -3.648  25.258  0.00  0.00    -0.286 OA
ENDBRANCH   3   8
BRANCH   1  10
ATOM     10  CA  SER A   1      18.333  -0.341  24.200  0.00  0.00    +0.175 C 
BRANCH  10  11
ATOM     11  N   SER A   1      19.381   0.536  24.709  0.00  0.00    -0.236 NA
ATOM     12  H   SER A   1      19.853   1.170  24.034  0.00  0.00    +0.142 HD
ENDBRANCH  10  11
BRANCH  10  13
ATOM     13  CB  SER A   1      17.128   0.458  23.656  0.00  0.00    +0.163 C 
BRANCH  13  14
ATOM     14  OG  SER A   1      16.506   1.153  24.720  0.00  0.00    -0.380 OA
ATOM     15  H   SER A   1      16.194   0.504  25.399  0.00  0.00    +0.211 HD
ENDBRANCH  13  14
ENDBRANCH  10  13
ENDBRANCH   1  10
TORSDOF 5
REMARK  Name = ../refined-set-2016/1zge/1zge_pocket.pdb
REMARK  145 active torsions:
REMARK  status: ('A' for Active; 'I' for Inactive)
REMARK    1  A    between atoms: _1  and  _3
REMARK    2  A    between atoms: _3  and  _4
REMARK    3  A    between atoms: _3  and  _6
REMARK    4  A    between atoms: _6  and  _7
REMARK    5  A    between atoms: _17  and  _19
REMARK    6  A    between atoms: _19  and  _20
REMARK    7  A    between atoms: _19  and  _22
REMARK    8  A    between atoms: _22  and  _23
REMARK    9  A    between atoms: _28  and  _29
REMARK   10  A    between atoms: _31  and  _33
REMARK   11  A    between atoms: _33  and  _34
REMARK   12  A    between atoms: _33  and  _36
REMARK   13  A    between atoms: _36  and  _37
REMARK   14  A    between atoms: _40  and  _41
REMARK   15  A    between atoms: _46  and  _48
REMARK   16  A    between atoms: _48  and  _49
REMARK   17  A    between atoms: _48  and  _51
REMARK   18  A    between atoms: _51  and  _52
REMARK   19  A    between atoms: _57  and  _59
REMARK   20  A    between atoms: _59  and  _60
REMARK   21  A    between atoms: _59  and  _62
REMARK   22  A    between atoms: _62  and  _63
REMARK   23  A    between atoms: _68  and  _70
REMARK   24  A    between atoms: _70  and  _71
REMARK   25  A    between atoms: _74  and  _76
REMARK   26  A    between atoms: _76  and  _77
REMARK   27  A    between atoms: _76  and  _79
REMARK   28  A    between atoms: _79  and  _80
REMARK   29  A    between atoms: _85  and  _87
REMARK   30  A    between atoms: _87  and  _88
REMARK   31  A    between atoms: _87  and  _90
REMARK   32  A    between atoms: _90  and  _91
REMARK   33  A    between atoms: _94  and  _96
REMARK   34  A    between atoms: _96  and  _97
REMARK   35  A    between atoms: _96  and  _99
REMARK   36  A    between atoms: _99  and  _100
REMARK   37  A    between atoms: _100  and  _101
REMARK   38  A    between atoms: _106  and  _108
REMARK   39  A    between atoms: _108  and  _109
REMARK   40  A    between atoms: _108  and  _111
REMARK   41  A    between atoms: _111  and  _112
REMARK   42  A    between atoms: _118  and  _120
REMARK   43  A    between atoms: _131  and  _134
REMARK   44  A    between atoms: _134  and  _135
REMARK   45  A    between atoms: _143  and  _144
REMARK   46  A    between atoms: _152  and  _154
REMARK   47  A    between atoms: _154  and  _155
REMARK   48  A    between atoms: _154  and  _157
REMARK   49  A    between atoms: _157  and  _158
REMARK   50  A    between atoms: _158  and  _159
REMARK   51  A    between atoms: _162  and  _164
REMARK   52  A    between atoms: _164  and  _165
REMARK   53  A    between atoms: _164  and  _167
REMARK   54  A    between atoms: _167  and  _168
REMARK   55  A    between atoms: _173  and  _175
REMARK   56  A    between atoms: _175  and  _176
REMARK   57  A    between atoms: _175  and  _178
REMARK   58  A    between atoms: _178  and  _179
REMARK   59  A    between atoms: _179  and  _180
REMARK   60  A    between atoms: _183  and  _185
REMARK   61  A    between atoms: _185  and  _186
REMARK   62  A    between atoms: _185  and  _188
REMARK   63  A    between atoms: _188  and  _189
REMARK   64  A    between atoms: _192  and  _194
REMARK   65  A    between atoms: _194  and  _195
REMARK   66  A    between atoms: _194  and  _197
REMARK   67  A    between atoms: _197  and  _198
REMARK   68  A    between atoms: _199  and  ZN_409
REMARK   69  A    between atoms: _203  and  _205
REMARK   70  A    between atoms: _205  and  _206
REMARK   71  A    between atoms: _205  and  _208
REMARK   72  A    between atoms: _208  and  _209
REMARK   73  A    between atoms: _212  and  _214
REMARK   74  A    between atoms: _214  and  _215
REMARK   75  A    between atoms: _214  and  _217
REMARK   76  A    between atoms: _220  and  _222
REMARK   77  A    between atoms: _222  and  _223
REMARK   78  A    between atoms: _222  and  _225
REMARK   79  A    between atoms: _225  and  _226
REMARK   80  A    between atoms: _231  and  _233
REMARK   81  A    between atoms: _233  and  _234
REMARK   82  A    between atoms: _233  and  _236
REMARK   83  A    between atoms: _236  and  _237
REMARK   84  A    between atoms: _243  and  _245
REMARK   85  A    between atoms: _245  and  _246
REMARK   86  A    between atoms: _245  and  _248
REMARK   87  A    between atoms: _251  and  _253
REMARK   88  A    between atoms: _253  and  _254
REMARK   89  A    between atoms: _253  and  _256
REMARK   90  A    between atoms: _256  and  _257
REMARK   91  A    between atoms: _260  and  _262
REMARK   92  A    between atoms: _262  and  _263
REMARK   93  A    between atoms: _266  and  _268
REMARK   94  A    between atoms: _268  and  _269
REMARK   95  A    between atoms: _268  and  _271
REMARK   96  A    between atoms: _274  and  _276
REMARK   97  A    between atoms: _276  and  _277
REMARK   98  A    between atoms: _276  and  _279
REMARK   99  A    between atoms: _279  and  _280
REMARK  100  A    between atoms: _283  and  _285
REMARK  101  A    between atoms: _285  and  _286
REMARK  102  A    between atoms: _285  and  _288
REMARK  103  A    between atoms: _288  and  _289
REMARK  104  A    between atoms: _291  and  _293
REMARK  105  A    between atoms: _293  and  _294
REMARK  106  A    between atoms: _293  and  _296
REMARK  107  A    between atoms: _296  and  _297
REMARK  108  A    between atoms: _300  and  _302
REMARK  109  A    between atoms: _302  and  _303
REMARK  110  A    between atoms: _302  and  _305
REMARK  111  A    between atoms: _305  and  _306
REMARK  112  A    between atoms: _309  and  _311
REMARK  113  A    between atoms: _311  and  _312
REMARK  114  A    between atoms: _311  and  _314
REMARK  115  A    between atoms: _314  and  _315
REMARK  116  A    between atoms: _319  and  _320
REMARK  117  A    between atoms: _326  and  _327
REMARK  118  A    between atoms: _332  and  _334
REMARK  119  A    between atoms: _334  and  _335
REMARK  120  A    between atoms: _334  and  _337
REMARK  121  A    between atoms: _337  and  _338
REMARK  122  A    between atoms: _341  and  _343
REMARK  123  A    between atoms: _343  and  _344
REMARK  124  A    between atoms: _343  and  _346
REMARK  125  A    between atoms: _346  and  _347
REMARK  126  A    between atoms: _350  and  _352
REMARK  127  A    between atoms: _352  and  _353
REMARK  128  A    between atoms: _352  and  _355
REMARK  129  A    between atoms: _357  and  _359
REMARK  130  A    between atoms: _359  and  _360
REMARK  131  A    between atoms: _359  and  _362
REMARK  132  A    between atoms: _365  and  _367
REMARK  133  A    between atoms: _367  and  _368
REMARK  134  A    between atoms: _367  and  _370
REMARK  135  A    between atoms: _370  and  _371
REMARK  136  A    between atoms: _381  and  _383
REMARK  137  A    between atoms: _383  and  _384
REMARK  138  A    between atoms: _383  and  _386
REMARK  139  A    between atoms: _386  and  _387
REMARK  140  A    between atoms: _392  and  _394
REMARK  141  A    between atoms: _394  and  _395
REMARK  142  A    between atoms: _394  and  _397
REMARK  143  A    between atoms: _397  and  _398
REMARK  144  A    between atoms: _398  and  _399
REMARK  145  A    between atoms: _399  and  _400
REMARK                            x       y       z     vdW  Elec       q    Type
REMARK                         _______ _______ _______ _____ _____    ______ ____
ROOT
ATOM      1  CB  ASN A   1      18.542   3.578   5.317  0.00  0.00    +0.110 C 
ENDROOT
BRANCH   1   2
ATOM      2  CG  ASN A   1      18.162   2.722   6.514  0.00  0.00    +0.221 C 
ATOM      3  ND2 ASN A   1      17.482   3.370   7.458  0.00  0.00    -0.329 N 
ATOM      4 HD21 ASN A   1      17.191   2.872   8.324  0.00  0.00    +0.145 HD
ATOM      5 HD22 ASN A   1      17.242   4.374   7.330  0.00  0.00    +0.145 HD
ATOM      6  OD1 ASN A   1      18.492   1.536   6.575  0.00  0.00    -0.275 OA
ENDBRANCH   1   2
BRANCH   1   7
ATOM      7  CA  ASN A   1      18.935   2.790   4.074  0.00  0.00    +0.142 C 
BRANCH   7   8
ATOM      8  N   ASN A   1      17.828   1.964   3.602  0.00  0.00    -0.239 NA
ATOM      9  H   ASN A   1      17.269   1.420   4.290  0.00  0.00    +0.142 HD
ENDBRANCH   7   8
BRANCH   7  10
ATOM     10  C   ASN A   1      20.203   1.962   4.317  0.00  0.00    +0.225 C 
ATOM     11  O   ASN A   1      21.178   2.490   4.885  0.00  0.00    -0.287 OA
ENDBRANCH   7  10
ENDBRANCH   1   7
TORSDOF 4
REMARK  Name = ../refined-set-2016/1zge/1zge_pocket.pdb
REMARK  145 active torsions:
REMARK  status: ('A' for Active; 'I' for Inactive)
REMARK    1  A    between atoms: _1  and  _3
REMARK    2  A    between atoms: _3  and  _4
REMARK    3  A    between atoms: _3  and  _6
REMARK    4  A    between atoms: _6  and  _7
REMARK    5  A    between atoms: _17  and  _19
REMARK    6  A    between atoms: _19  and  _20
REMARK    7  A    between atoms: _19  and  _22
REMARK    8  A    between atoms: _22  and  _23
REMARK    9  A    between atoms: _28  and  _29
REMARK   10  A    between atoms: _31  and  _33
REMARK   11  A    between atoms: _33  and  _34
REMARK   12  A    between atoms: _33  and  _36
REMARK   13  A    between atoms: _36  and  _37
REMARK   14  A    between atoms: _40  and  _41
REMARK   15  A    between atoms: _46  and  _48
REMARK   16  A    between atoms: _48  and  _49
REMARK   17  A    between atoms: _48  and  _51
REMARK   18  A    between atoms: _51  and  _52
REMARK   19  A    between atoms: _57  and  _59
REMARK   20  A    between atoms: _59  and  _60
REMARK   21  A    between atoms: _59  and  _62
REMARK   22  A    between atoms: _62  and  _63
REMARK   23  A    between atoms: _68  and  _70
REMARK   24  A    between atoms: _70  and  _71
REMARK   25  A    between atoms: _74  and  _76
REMARK   26  A    between atoms: _76  and  _77
REMARK   27  A    between atoms: _76  and  _79
REMARK   28  A    between atoms: _79  and  _80
REMARK   29  A    between atoms: _85  and  _87
REMARK   30  A    between atoms: _87  and  _88
REMARK   31  A    between atoms: _87  and  _90
REMARK   32  A    between atoms: _90  and  _91
REMARK   33  A    between atoms: _94  and  _96
REMARK   34  A    between atoms: _96  and  _97
REMARK   35  A    between atoms: _96  and  _99
REMARK   36  A    between atoms: _99  and  _100
REMARK   37  A    between atoms: _100  and  _101
REMARK   38  A    between atoms: _106  and  _108
REMARK   39  A    between atoms: _108  and  _109
REMARK   40  A    between atoms: _108  and  _111
REMARK   41  A    between atoms: _111  and  _112
REMARK   42  A    between atoms: _118  and  _120
REMARK   43  A    between atoms: _131  and  _134
REMARK   44  A    between atoms: _134  and  _135
REMARK   45  A    between atoms: _143  and  _144
REMARK   46  A    between atoms: _152  and  _154
REMARK   47  A    between atoms: _154  and  _155
REMARK   48  A    between atoms: _154  and  _157
REMARK   49  A    between atoms: _157  and  _158
REMARK   50  A    between atoms: _158  and  _159
REMARK   51  A    between atoms: _162  and  _164
REMARK   52  A    between atoms: _164  and  _165
REMARK   53  A    between atoms: _164  and  _167
REMARK   54  A    between atoms: _167  and  _168
REMARK   55  A    between atoms: _173  and  _175
REMARK   56  A    between atoms: _175  and  _176
REMARK   57  A    between atoms: _175  and  _178
REMARK   58  A    between atoms: _178  and  _179
REMARK   59  A    between atoms: _179  and  _180
REMARK   60  A    between atoms: _183  and  _185
REMARK   61  A    between atoms: _185  and  _186
REMARK   62  A    between atoms: _185  and  _188
REMARK   63  A    between atoms: _188  and  _189
REMARK   64  A    between atoms: _192  and  _194
REMARK   65  A    between atoms: _194  and  _195
REMARK   66  A    between atoms: _194  and  _197
REMARK   67  A    between atoms: _197  and  _198
REMARK   68  A    between atoms: _199  and  ZN_409
REMARK   69  A    between atoms: _203  and  _205
REMARK   70  A    between atoms: _205  and  _206
REMARK   71  A    between atoms: _205  and  _208
REMARK   72  A    between atoms: _208  and  _209
REMARK   73  A    between atoms: _212  and  _214
REMARK   74  A    between atoms: _214  and  _215
REMARK   75  A    between atoms: _214  and  _217
REMARK   76  A    between atoms: _220  and  _222
REMARK   77  A    between atoms: _222  and  _223
REMARK   78  A    between atoms: _222  and  _225
REMARK   79  A    between atoms: _225  and  _226
REMARK   80  A    between atoms: _231  and  _233
REMARK   81  A    between atoms: _233  and  _234
REMARK   82  A    between atoms: _233  and  _236
REMARK   83  A    between atoms: _236  and  _237
REMARK   84  A    between atoms: _243  and  _245
REMARK   85  A    between atoms: _245  and  _246
REMARK   86  A    between atoms: _245  and  _248
REMARK   87  A    between atoms: _251  and  _253
REMARK   88  A    between atoms: _253  and  _254
REMARK   89  A    between atoms: _253  and  _256
REMARK   90  A    between atoms: _256  and  _257
REMARK   91  A    between atoms: _260  and  _262
REMARK   92  A    between atoms: _262  and  _263
REMARK   93  A    between atoms: _266  and  _268
REMARK   94  A    between atoms: _268  and  _269
REMARK   95  A    between atoms: _268  and  _271
REMARK   96  A    between atoms: _274  and  _276
REMARK   97  A    between atoms: _276  and  _277
REMARK   98  A    between atoms: _276  and  _279
REMARK   99  A    between atoms: _279  and  _280
REMARK  100  A    between atoms: _283  and  _285
REMARK  101  A    between atoms: _285  and  _286
REMARK  102  A    between atoms: _285  and  _288
REMARK  103  A    between atoms: _288  and  _289
REMARK  104  A    between atoms: _291  and  _293
REMARK  105  A    between atoms: _293  and  _294
REMARK  106  A    between atoms: _293  and  _296
REMARK  107  A    between atoms: _296  and  _297
REMARK  108  A    between atoms: _300  and  _302
REMARK  109  A    between atoms: _302  and  _303
REMARK  110  A    between atoms: _302  and  _305
REMARK  111  A    between atoms: _305  and  _306
REMARK  112  A    between atoms: _309  and  _311
REMARK  113  A    between atoms: _311  and  _312
REMARK  114  A    between atoms: _311  and  _314
REMARK  115  A    between atoms: _314  and  _315
REMARK  116  A    between atoms: _319  and  _320
REMARK  117  A    between atoms: _326  and  _327
REMARK  118  A    between atoms: _332  and  _334
REMARK  119  A    between atoms: _334  and  _335
REMARK  120  A    between atoms: _334  and  _337
REMARK  121  A    between atoms: _337  and  _338
REMARK  122  A    between atoms: _341  and  _343
REMARK  123  A    between atoms: _343  and  _344
REMARK  124  A    between atoms: _343  and  _346
REMARK  125  A    between atoms: _346  and  _347
REMARK  126  A    between atoms: _350  and  _352
REMARK  127  A    between atoms: _352  and  _353
REMARK  128  A    between atoms: _352  and  _355
REMARK  129  A    between atoms: _357  and  _359
REMARK  130  A    between atoms: _359  and  _360
REMARK  131  A    between atoms: _359  and  _362
REMARK  132  A    between atoms: _365  and  _367
REMARK  133  A    between atoms: _367  and  _368
REMARK  134  A    between atoms: _367  and  _370
REMARK  135  A    between atoms: _370  and  _371
REMARK  136  A    between atoms: _381  and  _383
REMARK  137  A    between atoms: _383  and  _384
REMARK  138  A    between atoms: _383  and  _386
REMARK  139  A    between atoms: _386  and  _387
REMARK  140  A    between atoms: _392  and  _394
REMARK  141  A    between atoms: _394  and  _395
REMARK  142  A    between atoms: _394  and  _397
REMARK  143  A    between atoms: _397  and  _398
REMARK  144  A    between atoms: _398  and  _399
REMARK  145  A    between atoms: _399  and  _400
REMARK                            x       y       z     vdW  Elec       q    Type
REMARK                         _______ _______ _______ _____ _____    ______ ____
ROOT
ATOM      1  CA  HIS A   1      20.295  -1.117   7.689  0.00  0.00    +0.151 C 
ENDROOT
BRANCH   1   2
ATOM      2  C   HIS A   1      18.907  -1.702   7.899  0.00  0.00    +0.239 C 
ATOM      3  O   HIS A   1      18.784  -2.702   8.618  0.00  0.00    -0.274 OA
ATOM      4  N   ALA A   2      17.889  -1.074   7.341  0.00  0.00    -0.298 N 
ATOM      5  H   ALA A   2      18.072  -0.166   6.868  0.00  0.00    +0.150 HD
BRANCH   4   6
ATOM      6  CA  ALA A   2      16.535  -1.577   7.350  0.00  0.00    +0.137 C 
ATOM      7  CB  ALA A   2      15.901  -1.402   8.693  0.00  0.00    +0.030 C 
BRANCH   6   8
ATOM      8  C   ALA A   2      15.808  -0.828   6.228  0.00  0.00    +0.227 C 
ATOM      9  O   ALA A   2      16.504  -0.292   5.369  0.00  0.00    -0.286 OA
ENDBRANCH   6   8
ENDBRANCH   4   6
ENDBRANCH   1   2
BRANCH   1  10
ATOM     10  N   HIS A   1      20.451  -0.522   6.346  0.00  0.00    -0.238 NA
ATOM     11  H   HIS A   1      19.786   0.229   6.073  0.00  0.00    +0.142 HD
ENDBRANCH   1  10
BRANCH   1  12
ATOM     12  CB  HIS A   1      20.628  -0.049   8.753  0.00  0.00    +0.074 C 
BRANCH  12  13
ATOM     13  CG  HIS A   1      21.927   0.587   8.349  0.00  0.00    +0.082 A 
ATOM     14  CD2 HIS A   1      23.231   0.379   8.596  0.00  0.00    +0.115 A 
ATOM     15  NE2 HIS A   1      23.932   1.289   7.847  0.00  0.00    -0.221 NA
ATOM     16  CE1 HIS A   1      23.075   1.959   7.099  0.00  0.00    +0.199 A 
ATOM     17  ND1 HIS A   1      21.885   1.567   7.370  0.00  0.00    -0.227 NA
ENDBRANCH  12  13
ENDBRANCH   1  12
TORSDOF 6
REMARK  Name = ../refined-set-2016/1zge/1zge_pocket.pdb
REMARK  145 active torsions:
REMARK  status: ('A' for Active; 'I' for Inactive)
REMARK    1  A    between atoms: _1  and  _3
REMARK    2  A    between atoms: _3  and  _4
REMARK    3  A    between atoms: _3  and  _6
REMARK    4  A    between atoms: _6  and  _7
REMARK    5  A    between atoms: _17  and  _19
REMARK    6  A    between atoms: _19  and  _20
REMARK    7  A    between atoms: _19  and  _22
REMARK    8  A    between atoms: _22  and  _23
REMARK    9  A    between atoms: _28  and  _29
REMARK   10  A    between atoms: _31  and  _33
REMARK   11  A    between atoms: _33  and  _34
REMARK   12  A    between atoms: _33  and  _36
REMARK   13  A    between atoms: _36  and  _37
REMARK   14  A    between atoms: _40  and  _41
REMARK   15  A    between atoms: _46  and  _48
REMARK   16  A    between atoms: _48  and  _49
REMARK   17  A    between atoms: _48  and  _51
REMARK   18  A    between atoms: _51  and  _52
REMARK   19  A    between atoms: _57  and  _59
REMARK   20  A    between atoms: _59  and  _60
REMARK   21  A    between atoms: _59  and  _62
REMARK   22  A    between atoms: _62  and  _63
REMARK   23  A    between atoms: _68  and  _70
REMARK   24  A    between atoms: _70  and  _71
REMARK   25  A    between atoms: _74  and  _76
REMARK   26  A    between atoms: _76  and  _77
REMARK   27  A    between atoms: _76  and  _79
REMARK   28  A    between atoms: _79  and  _80
REMARK   29  A    between atoms: _85  and  _87
REMARK   30  A    between atoms: _87  and  _88
REMARK   31  A    between atoms: _87  and  _90
REMARK   32  A    between atoms: _90  and  _91
REMARK   33  A    between atoms: _94  and  _96
REMARK   34  A    between atoms: _96  and  _97
REMARK   35  A    between atoms: _96  and  _99
REMARK   36  A    between atoms: _99  and  _100
REMARK   37  A    between atoms: _100  and  _101
REMARK   38  A    between atoms: _106  and  _108
REMARK   39  A    between atoms: _108  and  _109
REMARK   40  A    between atoms: _108  and  _111
REMARK   41  A    between atoms: _111  and  _112
REMARK   42  A    between atoms: _118  and  _120
REMARK   43  A    between atoms: _131  and  _134
REMARK   44  A    between atoms: _134  and  _135
REMARK   45  A    between atoms: _143  and  _144
REMARK   46  A    between atoms: _152  and  _154
REMARK   47  A    between atoms: _154  and  _155
REMARK   48  A    between atoms: _154  and  _157
REMARK   49  A    between atoms: _157  and  _158
REMARK   50  A    between atoms: _158  and  _159
REMARK   51  A    between atoms: _162  and  _164
REMARK   52  A    between atoms: _164  and  _165
REMARK   53  A    between atoms: _164  and  _167
REMARK   54  A    between atoms: _167  and  _168
REMARK   55  A    between atoms: _173  and  _175
REMARK   56  A    between atoms: _175  and  _176
REMARK   57  A    between atoms: _175  and  _178
REMARK   58  A    between atoms: _178  and  _179
REMARK   59  A    between atoms: _179  and  _180
REMARK   60  A    between atoms: _183  and  _185
REMARK   61  A    between atoms: _185  and  _186
REMARK   62  A    between atoms: _185  and  _188
REMARK   63  A    between atoms: _188  and  _189
REMARK   64  A    between atoms: _192  and  _194
REMARK   65  A    between atoms: _194  and  _195
REMARK   66  A    between atoms: _194  and  _197
REMARK   67  A    between atoms: _197  and  _198
REMARK   68  A    between atoms: _199  and  ZN_409
REMARK   69  A    between atoms: _203  and  _205
REMARK   70  A    between atoms: _205  and  _206
REMARK   71  A    between atoms: _205  and  _208
REMARK   72  A    between atoms: _208  and  _209
REMARK   73  A    between atoms: _212  and  _214
REMARK   74  A    between atoms: _214  and  _215
REMARK   75  A    between atoms: _214  and  _217
REMARK   76  A    between atoms: _220  and  _222
REMARK   77  A    between atoms: _222  and  _223
REMARK   78  A    between atoms: _222  and  _225
REMARK   79  A    between atoms: _225  and  _226
REMARK   80  A    between atoms: _231  and  _233
REMARK   81  A    between atoms: _233  and  _234
REMARK   82  A    between atoms: _233  and  _236
REMARK   83  A    between atoms: _236  and  _237
REMARK   84  A    between atoms: _243  and  _245
REMARK   85  A    between atoms: _245  and  _246
REMARK   86  A    between atoms: _245  and  _248
REMARK   87  A    between atoms: _251  and  _253
REMARK   88  A    between atoms: _253  and  _254
REMARK   89  A    between atoms: _253  and  _256
REMARK   90  A    between atoms: _256  and  _257
REMARK   91  A    between atoms: _260  and  _262
REMARK   92  A    between atoms: _262  and  _263
REMARK   93  A    between atoms: _266  and  _268
REMARK   94  A    between atoms: _268  and  _269
REMARK   95  A    between atoms: _268  and  _271
REMARK   96  A    between atoms: _274  and  _276
REMARK   97  A    between atoms: _276  and  _277
REMARK   98  A    between atoms: _276  and  _279
REMARK   99  A    between atoms: _279  and  _280
REMARK  100  A    between atoms: _283  and  _285
REMARK  101  A    between atoms: _285  and  _286
REMARK  102  A    between atoms: _285  and  _288
REMARK  103  A    between atoms: _288  and  _289
REMARK  104  A    between atoms: _291  and  _293
REMARK  105  A    between atoms: _293  and  _294
REMARK  106  A    between atoms: _293  and  _296
REMARK  107  A    between atoms: _296  and  _297
REMARK  108  A    between atoms: _300  and  _302
REMARK  109  A    between atoms: _302  and  _303
REMARK  110  A    between atoms: _302  and  _305
REMARK  111  A    between atoms: _305  and  _306
REMARK  112  A    between atoms: _309  and  _311
REMARK  113  A    between atoms: _311  and  _312
REMARK  114  A    between atoms: _311  and  _314
REMARK  115  A    between atoms: _314  and  _315
REMARK  116  A    between atoms: _319  and  _320
REMARK  117  A    between atoms: _326  and  _327
REMARK  118  A    between atoms: _332  and  _334
REMARK  119  A    between atoms: _334  and  _335
REMARK  120  A    between atoms: _334  and  _337
REMARK  121  A    between atoms: _337  and  _338
REMARK  122  A    between atoms: _341  and  _343
REMARK  123  A    between atoms: _343  and  _344
REMARK  124  A    between atoms: _343  and  _346
REMARK  125  A    between atoms: _346  and  _347
REMARK  126  A    between atoms: _350  and  _352
REMARK  127  A    between atoms: _352  and  _353
REMARK  128  A    between atoms: _352  and  _355
REMARK  129  A    between atoms: _357  and  _359
REMARK  130  A    between atoms: _359  and  _360
REMARK  131  A    between atoms: _359  and  _362
REMARK  132  A    between atoms: _365  and  _367
REMARK  133  A    between atoms: _367  and  _368
REMARK  134  A    between atoms: _367  and  _370
REMARK  135  A    between atoms: _370  and  _371
REMARK  136  A    between atoms: _381  and  _383
REMARK  137  A    between atoms: _383  and  _384
REMARK  138  A    between atoms: _383  and  _386
REMARK  139  A    between atoms: _386  and  _387
REMARK  140  A    between atoms: _392  and  _394
REMARK  141  A    between atoms: _394  and  _395
REMARK  142  A    between atoms: _394  and  _397
REMARK  143  A    between atoms: _397  and  _398
REMARK  144  A    between atoms: _398  and  _399
REMARK  145  A    between atoms: _399  and  _400
REMARK                            x       y       z     vdW  Elec       q    Type
REMARK                         _______ _______ _______ _____ _____    ______ ____
ROOT
ATOM      1  CB  ASN A   1      12.689   4.382   6.771  0.00  0.00    +0.110 C 
ENDROOT
BRANCH   1   2
ATOM      2  CG  ASN A   1      13.732   4.237   7.840  0.00  0.00    +0.221 C 
ATOM      3  OD1 ASN A   1      13.715   3.277   8.608  0.00  0.00    -0.275 OA
ATOM      4  ND2 ASN A   1      14.658   5.182   7.890  0.00  0.00    -0.329 N 
ATOM      5 HD21 ASN A   1      15.415   5.132   8.602  0.00  0.00    +0.145 HD
ATOM      6 HD22 ASN A   1      14.629   5.975   7.217  0.00  0.00    +0.145 HD
ENDBRANCH   1   2
BRANCH   1   7
ATOM      7  CA  ASN A   1      11.896   3.112   6.492  0.00  0.00    +0.142 C 
BRANCH   7   8
ATOM      8  N   ASN A   1      12.711   2.153   5.793  0.00  0.00    -0.239 NA
ATOM      9  H   ASN A   1      13.263   2.478   4.974  0.00  0.00    +0.142 HD
ENDBRANCH   7   8
BRANCH   7  10
ATOM     10  C   ASN A   1      10.671   3.474   5.642  0.00  0.00    +0.225 C 
ATOM     11  O   ASN A   1      10.828   3.826   4.478  0.00  0.00    -0.287 OA
ENDBRANCH   7  10
ENDBRANCH   1   7
TORSDOF 4
REMARK  Name = ../refined-set-2016/1zge/1zge_pocket.pdb
REMARK  145 active torsions:
REMARK  status: ('A' for Active; 'I' for Inactive)
REMARK    1  A    between atoms: _1  and  _3
REMARK    2  A    between atoms: _3  and  _4
REMARK    3  A    between atoms: _3  and  _6
REMARK    4  A    between atoms: _6  and  _7
REMARK    5  A    between atoms: _17  and  _19
REMARK    6  A    between atoms: _19  and  _20
REMARK    7  A    between atoms: _19  and  _22
REMARK    8  A    between atoms: _22  and  _23
REMARK    9  A    between atoms: _28  and  _29
REMARK   10  A    between atoms: _31  and  _33
REMARK   11  A    between atoms: _33  and  _34
REMARK   12  A    between atoms: _33  and  _36
REMARK   13  A    between atoms: _36  and  _37
REMARK   14  A    between atoms: _40  and  _41
REMARK   15  A    between atoms: _46  and  _48
REMARK   16  A    between atoms: _48  and  _49
REMARK   17  A    between atoms: _48  and  _51
REMARK   18  A    between atoms: _51  and  _52
REMARK   19  A    between atoms: _57  and  _59
REMARK   20  A    between atoms: _59  and  _60
REMARK   21  A    between atoms: _59  and  _62
REMARK   22  A    between atoms: _62  and  _63
REMARK   23  A    between atoms: _68  and  _70
REMARK   24  A    between atoms: _70  and  _71
REMARK   25  A    between atoms: _74  and  _76
REMARK   26  A    between atoms: _76  and  _77
REMARK   27  A    between atoms: _76  and  _79
REMARK   28  A    between atoms: _79  and  _80
REMARK   29  A    between atoms: _85  and  _87
REMARK   30  A    between atoms: _87  and  _88
REMARK   31  A    between atoms: _87  and  _90
REMARK   32  A    between atoms: _90  and  _91
REMARK   33  A    between atoms: _94  and  _96
REMARK   34  A    between atoms: _96  and  _97
REMARK   35  A    between atoms: _96  and  _99
REMARK   36  A    between atoms: _99  and  _100
REMARK   37  A    between atoms: _100  and  _101
REMARK   38  A    between atoms: _106  and  _108
REMARK   39  A    between atoms: _108  and  _109
REMARK   40  A    between atoms: _108  and  _111
REMARK   41  A    between atoms: _111  and  _112
REMARK   42  A    between atoms: _118  and  _120
REMARK   43  A    between atoms: _131  and  _134
REMARK   44  A    between atoms: _134  and  _135
REMARK   45  A    between atoms: _143  and  _144
REMARK   46  A    between atoms: _152  and  _154
REMARK   47  A    between atoms: _154  and  _155
REMARK   48  A    between atoms: _154  and  _157
REMARK   49  A    between atoms: _157  and  _158
REMARK   50  A    between atoms: _158  and  _159
REMARK   51  A    between atoms: _162  and  _164
REMARK   52  A    between atoms: _164  and  _165
REMARK   53  A    between atoms: _164  and  _167
REMARK   54  A    between atoms: _167  and  _168
REMARK   55  A    between atoms: _173  and  _175
REMARK   56  A    between atoms: _175  and  _176
REMARK   57  A    between atoms: _175  and  _178
REMARK   58  A    between atoms: _178  and  _179
REMARK   59  A    between atoms: _179  and  _180
REMARK   60  A    between atoms: _183  and  _185
REMARK   61  A    between atoms: _185  and  _186
REMARK   62  A    between atoms: _185  and  _188
REMARK   63  A    between atoms: _188  and  _189
REMARK   64  A    between atoms: _192  and  _194
REMARK   65  A    between atoms: _194  and  _195
REMARK   66  A    between atoms: _194  and  _197
REMARK   67  A    between atoms: _197  and  _198
REMARK   68  A    between atoms: _199  and  ZN_409
REMARK   69  A    between atoms: _203  and  _205
REMARK   70  A    between atoms: _205  and  _206
REMARK   71  A    between atoms: _205  and  _208
REMARK   72  A    between atoms: _208  and  _209
REMARK   73  A    between atoms: _212  and  _214
REMARK   74  A    between atoms: _214  and  _215
REMARK   75  A    between atoms: _214  and  _217
REMARK   76  A    between atoms: _220  and  _222
REMARK   77  A    between atoms: _222  and  _223
REMARK   78  A    between atoms: _222  and  _225
REMARK   79  A    between atoms: _225  and  _226
REMARK   80  A    between atoms: _231  and  _233
REMARK   81  A    between atoms: _233  and  _234
REMARK   82  A    between atoms: _233  and  _236
REMARK   83  A    between atoms: _236  and  _237
REMARK   84  A    between atoms: _243  and  _245
REMARK   85  A    between atoms: _245  and  _246
REMARK   86  A    between atoms: _245  and  _248
REMARK   87  A    between atoms: _251  and  _253
REMARK   88  A    between atoms: _253  and  _254
REMARK   89  A    between atoms: _253  and  _256
REMARK   90  A    between atoms: _256  and  _257
REMARK   91  A    between atoms: _260  and  _262
REMARK   92  A    between atoms: _262  and  _263
REMARK   93  A    between atoms: _266  and  _268
REMARK   94  A    between atoms: _268  and  _269
REMARK   95  A    between atoms: _268  and  _271
REMARK   96  A    between atoms: _274  and  _276
REMARK   97  A    between atoms: _276  and  _277
REMARK   98  A    between atoms: _276  and  _279
REMARK   99  A    between atoms: _279  and  _280
REMARK  100  A    between atoms: _283  and  _285
REMARK  101  A    between atoms: _285  and  _286
REMARK  102  A    between atoms: _285  and  _288
REMARK  103  A    between atoms: _288  and  _289
REMARK  104  A    between atoms: _291  and  _293
REMARK  105  A    between atoms: _293  and  _294
REMARK  106  A    between atoms: _293  and  _296
REMARK  107  A    between atoms: _296  and  _297
REMARK  108  A    between atoms: _300  and  _302
REMARK  109  A    between atoms: _302  and  _303
REMARK  110  A    between atoms: _302  and  _305
REMARK  111  A    between atoms: _305  and  _306
REMARK  112  A    between atoms: _309  and  _311
REMARK  113  A    between atoms: _311  and  _312
REMARK  114  A    between atoms: _311  and  _314
REMARK  115  A    between atoms: _314  and  _315
REMARK  116  A    between atoms: _319  and  _320
REMARK  117  A    between atoms: _326  and  _327
REMARK  118  A    between atoms: _332  and  _334
REMARK  119  A    between atoms: _334  and  _335
REMARK  120  A    between atoms: _334  and  _337
REMARK  121  A    between atoms: _337  and  _338
REMARK  122  A    between atoms: _341  and  _343
REMARK  123  A    between atoms: _343  and  _344
REMARK  124  A    between atoms: _343  and  _346
REMARK  125  A    between atoms: _346  and  _347
REMARK  126  A    between atoms: _350  and  _352
REMARK  127  A    between atoms: _352  and  _353
REMARK  128  A    between atoms: _352  and  _355
REMARK  129  A    between atoms: _357  and  _359
REMARK  130  A    between atoms: _359  and  _360
REMARK  131  A    between atoms: _359  and  _362
REMARK  132  A    between atoms: _365  and  _367
REMARK  133  A    between atoms: _367  and  _368
REMARK  134  A    between atoms: _367  and  _370
REMARK  135  A    between atoms: _370  and  _371
REMARK  136  A    between atoms: _381  and  _383
REMARK  137  A    between atoms: _383  and  _384
REMARK  138  A    between atoms: _383  and  _386
REMARK  139  A    between atoms: _386  and  _387
REMARK  140  A    between atoms: _392  and  _394
REMARK  141  A    between atoms: _394  and  _395
REMARK  142  A    between atoms: _394  and  _397
REMARK  143  A    between atoms: _397  and  _398
REMARK  144  A    between atoms: _398  and  _399
REMARK  145  A    between atoms: _399  and  _400
REMARK                            x       y       z     vdW  Elec       q    Type
REMARK                         _______ _______ _______ _____ _____    ______ ____
ROOT
ATOM      1  C   UNK A   4      10.837   0.301  10.262  0.00  0.00    +0.000 C 
ATOM      2  C   UNK A   4      10.758  -0.974  11.097  0.00  0.00    +0.000 C 
ATOM      3  O   UNK A   4      10.113  -0.979  12.146  0.00  0.00    +0.000 OA
ATOM      4  N   VAL A   5      11.418  -2.006  10.617  0.00  0.00    +0.000 N 
ATOM      5  CA  VAL A   5      11.517  -3.301  11.264  0.00  0.00    +0.000 C 
ATOM      6  C   VAL A   5      12.970  -3.749  11.450  0.00  0.00    +0.000 C 
ATOM      7  N   UNK A   6      13.144  -4.689  12.370  0.00  0.00    +0.000 N 
ATOM      8  H   UNK A   6      12.341  -4.869  13.006  0.00  0.00    +0.000 HD
ATOM      9  C   UNK A   6      14.324  -5.488  12.585  0.00  0.00    +0.000 C 
ATOM     10  C   UNK A   6      14.959  -5.227  13.950  0.00  0.00    +0.000 C 
ATOM     11  C   UNK A   6      15.247  -3.778  14.183  0.00  0.00    +0.000 A 
ATOM     12  C   UNK A   6      14.445  -2.754  14.557  0.00  0.00    +0.000 A 
ATOM     13  N   UNK A   6      15.197  -1.603  14.600  0.00  0.00    +0.000 N 
ATOM     14 ZN   UNK A   6      14.480   0.190  15.176  0.00  0.00    +0.000 Zn
ATOM     15  N   UNK A   4      13.732   1.100  13.535  0.00  0.00    +0.000 N 
ATOM     16  C   UNK A   4      13.161   2.274  13.376  0.00  0.00    +0.000 A 
ATOM     17  N   UNK A   4      12.560   2.318  12.184  0.00  0.00    +0.000 NA
ATOM     18  C   UNK A   4      12.814   1.113  11.547  0.00  0.00    +0.000 A 
ATOM     19  C   UNK A   4      13.542   0.352  12.409  0.00  0.00    +0.000 A 
ATOM     20  C   UNK A   6      16.438  -1.919  14.240  0.00  0.00    +0.000 A 
ATOM     21  N   UNK A   6      16.479  -3.213  13.972  0.00  0.00    +0.000 NA
ATOM     22  O   VAL A   5      13.887  -3.272  10.808  0.00  0.00    +0.000 OA
ATOM     23  H   VAL A   5      11.905  -1.885   9.706  0.00  0.00    +0.000 HD
ATOM     24  C   UNK A   4      12.265   0.839  10.182  0.00  0.00    +0.000 C 
ENDROOT
BRANCH  14  25
ATOM     25  N   UNK A   6      13.008  -0.471  16.506  0.00  0.00    +0.000 N 
ATOM     26  C   UNK A   6      13.284  -1.383  17.402  0.00  0.00    +0.000 A 
ATOM     27  N   UNK A   6      12.187  -1.815  17.993  0.00  0.00    +0.000 NA
ATOM     28  C   UNK A   6      11.138  -1.125  17.407  0.00  0.00    +0.000 A 
ATOM     29  C   UNK A   6      11.654  -0.292  16.495  0.00  0.00    +0.000 A 
BRANCH  29  30
ATOM     30  C   UNK A   6      10.936   0.671  15.591  0.00  0.00    +0.000 C 
BRANCH  30  31
ATOM     31  C   UNK A   6       9.452   0.350  15.511  0.00  0.00    +0.000 C 
BRANCH  31  32
ATOM     32  C   UNK A   6       8.730   1.520  14.824  0.00  0.00    +0.000 C 
ATOM     33  N   UNK A   4       7.749   2.058  15.544  0.00  0.00    +0.000 N 
ATOM     34  H   UNK A   4       7.444   1.603  16.428  0.00  0.00    +0.000 HD
ATOM     35  O   UNK A   6       9.070   1.882  13.706  0.00  0.00    +0.000 OA
BRANCH  33  36
ATOM     36  C   UNK A   4       7.100   3.288  15.095  0.00  0.00    +0.000 C 
BRANCH  36  37
ATOM     37  C   UNK A   4       7.697   4.464  15.871  0.00  0.00    +0.000 C 
ATOM     38  O   UNK A   4       7.557   4.527  17.098  0.00  0.00    +0.000 OA
ATOM     39  N   VAL A   5       8.338   5.346  15.132  0.00  0.00    +0.000 N 
ATOM     40  H   VAL A   5       8.242   5.303  14.097  0.00  0.00    +0.000 HD
BRANCH  39  41
ATOM     41  CA  VAL A   5       9.182   6.385  15.724  0.00  0.00    +0.000 C 
BRANCH  41  42
ATOM     42  C   VAL A   5       8.447   7.731  15.747  0.00  0.00    +0.000 C 
ATOM     43  N   UNK A   6       8.449   8.361  16.918  0.00  0.00    +0.000 N 
ATOM     44  H   UNK A   6       8.955   7.928  17.717  0.00  0.00    +0.000 HD
ATOM     45  O   VAL A   5       7.906   8.157  14.727  0.00  0.00    +0.000 OA
BRANCH  43  46
ATOM     46  C   UNK A   6       7.773   9.630  17.126  0.00  0.00    +0.000 C 
BRANCH  46  47
ATOM     47  C   UNK A   6       8.679  10.617  17.839  0.00  0.00    +0.000 C 
ATOM     48  O   UNK A   6       9.432  10.174  18.727  0.00  0.00    +0.000 OA
ENDBRANCH  46  47
BRANCH  46  49
ATOM     49  C   UNK A   6       6.507   9.470  17.975  0.00  0.00    +0.000 C 
BRANCH  49  50
ATOM     50  C   UNK A   6       5.644   8.310  17.607  0.00  0.00    +0.000 A 
ATOM     51  N   UNK A   6       5.967   6.998  17.861  0.00  0.00    +0.000 NA
ATOM     52  C   UNK A   6       5.001   6.213  17.408  0.00  0.00    +0.000 A 
ATOM     53  N   UNK A   6       4.045   6.950  16.873  0.00  0.00    +0.000 NA
ATOM     54  C   UNK A   6       4.431   8.276  17.000  0.00  0.00    +0.000 A 
ENDBRANCH  49  50
ENDBRANCH  46  49
ENDBRANCH  43  46
ENDBRANCH  41  42
BRANCH  41  55
ATOM     55  CB  VAL A   5      10.508   6.554  14.967  0.00  0.00    +0.000 C 
ATOM     56  CG2 VAL A   5      11.475   7.497  15.695  0.00  0.00    +0.000 C 
ATOM     57  CG1 VAL A   5      11.207   5.232  14.727  0.00  0.00    +0.000 C 
ENDBRANCH  41  55
ENDBRANCH  39  41
ENDBRANCH  36  37
BRANCH  36  58
ATOM     58  C   UNK A   4       5.588   3.202  15.283  0.00  0.00    +0.000 C 
BRANCH  58  59
ATOM     59  C   UNK A   4       4.891   2.130  14.427  0.00  0.00    +0.000 C 
ATOM     60  C   UNK A   4       4.115   1.164  15.303  0.00  0.00    +0.000 C 
ATOM     61  C   UNK A   4       3.971   2.769  13.401  0.00  0.00    +0.000 C 
ENDBRANCH  58  59
ENDBRANCH  36  58
ENDBRANCH  33  36
ENDBRANCH  31  32
BRANCH  31  62
ATOM     62  N   UNK A   6       9.174  -0.870  14.789  0.00  0.00    +0.000 N 
ATOM     63  C   LEU A   2       8.532  -1.913  15.302  0.00  0.00    +0.000 C 
ATOM     64  O   LEU A   2       8.147  -1.945  16.474  0.00  0.00    +0.000 OA
ATOM     65  H   UNK A   6       9.498  -0.936  13.803  0.00  0.00    +0.000 HD
BRANCH  63  66
ATOM     66  CA  LEU A   2       8.290  -3.093  14.373  0.00  0.00    +0.000 C 
BRANCH  66  67
ATOM     67  N   LEU A   2       8.684  -4.334  14.997  0.00  0.00    +0.000 N 
ATOM     68  H   LEU A   2       7.966  -4.824  15.568  0.00  0.00    +0.000 HD
ATOM     69  C   GLU A   1       9.867  -4.901  14.909  0.00  0.00    +0.000 C 
ATOM     70  O   GLU A   1      10.758  -4.484  14.189  0.00  0.00    +0.000 OA
BRANCH  69  71
ATOM     71  CA  GLU A   1      10.074  -6.160  15.744  0.00  0.00    +0.000 C 
BRANCH  71  72
ATOM     72  N   GLU A   1      10.538  -7.220  14.849  0.00  0.00    +0.000 NA
ATOM     73  H   GLU A   1      11.135  -6.975  14.033  0.00  0.00    +0.000 HD
ENDBRANCH  71  72
BRANCH  71  74
ATOM     74  CB  GLU A   1      11.060  -5.918  16.884  0.00  0.00    +0.000 C 
BRANCH  74  75
ATOM     75  CG  GLU A   1      10.598  -4.881  17.883  0.00  0.00    +0.000 C 
BRANCH  75  76
ATOM     76  CD  GLU A   1      11.485  -4.840  19.107  0.00  0.00    +0.000 C 
ATOM     77  OE2 GLU A   1      11.485  -3.761  19.710  0.00  0.00    +0.000 OA
ATOM     78  OE1 GLU A   1      12.131  -5.862  19.419  0.00  0.00    +0.000 OA
ENDBRANCH  75  76
ENDBRANCH  74  75
ENDBRANCH  71  74
ENDBRANCH  69  71
ENDBRANCH  66  67
BRANCH  66  79
ATOM     79  CB  LEU A   2       6.783  -3.177  14.060  0.00  0.00    +0.000 C 
BRANCH  79  80
ATOM     80  CG  LEU A   2       6.058  -1.930  13.568  0.00  0.00    +0.000 C 
ATOM     81  CD2 LEU A   2       4.574  -2.238  13.335  0.00  0.00    +0.000 C 
ATOM     82  CD1 LEU A   2       6.679  -1.411  12.298  0.00  0.00    +0.000 C 
ENDBRANCH  79  80
ENDBRANCH  66  79
ENDBRANCH  63  66
ENDBRANCH  31  62
ENDBRANCH  30  31
ENDBRANCH  29  30
ENDBRANCH  14  25
BRANCH   1  84
ATOM     83  C   UNK A   3       9.422   2.282  10.167  0.00  0.00    +0.000 C 
ATOM     84  N   UNK A   4       9.964   1.296  10.857  0.00  0.00    +0.000 N 
ATOM     85  H   UNK A   4       9.756   1.229  11.874  0.00  0.00    +0.000 HD
ATOM     86  O   UNK A   3       9.573   2.453   8.964  0.00  0.00    +0.000 OA
BRANCH  83  87
ATOM     87  C   UNK A   3       8.443   3.138  10.982  0.00  0.00    +0.000 C 
BRANCH  87  90
ATOM     88  C   LEU A   2       8.442   5.541  11.022  0.00  0.00    +0.000 C 
ATOM     89  O   LEU A   2       8.370   5.601  12.246  0.00  0.00    +0.000 OA
ATOM     90  N   UNK A   3       8.283   4.441  10.323  0.00  0.00    +0.000 N 
ATOM     91  H   UNK A   3       8.046   4.492   9.312  0.00  0.00    +0.000 HD
BRANCH  88  92
ATOM     92  CA  LEU A   2       8.718   6.824  10.241  0.00  0.00    +0.000 C 
BRANCH  92  94
ATOM     93  C   GLU A   1       8.300   9.202  10.583  0.00  0.00    +0.000 C 
ATOM     94  N   LEU A   2       8.443   7.974  11.060  0.00  0.00    +0.000 N 
ATOM     95  H   LEU A   2       8.351   7.834  12.086  0.00  0.00    +0.000 HD
ATOM     96  O   GLU A   1       8.358   9.405   9.363  0.00  0.00    +0.000 OA
BRANCH  93  97
ATOM     97  CA  GLU A   1       7.991  10.380  11.498  0.00  0.00    +0.000 C 
BRANCH  97  98
ATOM     98  CB  GLU A   1       9.305  11.030  11.990  0.00  0.00    +0.000 C 
ATOM     99  CG2 GLU A   1      10.011  10.258  13.086  0.00  0.00    +0.000 C 
BRANCH  98 100
ATOM    100  CG1 GLU A   1      10.283  11.332  10.855  0.00  0.00    +0.000 C 
ATOM    101  CD1 GLU A   1      11.560  12.047  11.267  0.00  0.00    +0.000 C 
ENDBRANCH  98 100
ENDBRANCH  97  98
BRANCH  97 102
ATOM    102  N   GLU A   1       7.082  10.036  12.576  0.00  0.00    +0.000 NA
ATOM    103  H   GLU A   1       7.414   9.366  13.299  0.00  0.00    +0.000 HD
ENDBRANCH  97 102
ENDBRANCH  93  97
ENDBRANCH  92  94
BRANCH  92 104
ATOM    104  CB  LEU A   2      10.185   6.778   9.778  0.00  0.00    +0.000 C 
BRANCH 104 105
ATOM    105  CG  LEU A   2      11.161   6.878  10.952  0.00  0.00    +0.000 C 
BRANCH 105 106
ATOM    106  CD  LEU A   2      12.009   5.616  11.018  0.00  0.00    +0.000 C 
ATOM    107  OE1 LEU A   2      11.444   4.532  11.114  0.00  0.00    +0.000 OA
ATOM    108  NE2 LEU A   2      13.309   5.741  10.945  0.00  0.00    +0.000 N 
ATOM    109 HE21 LEU A   2      13.915   4.896  10.967  0.00  0.00    +0.000 HD
ATOM    110 HE22 LEU A   2      13.737   6.685  10.865  0.00  0.00    +0.000 HD
ENDBRANCH 105 106
ENDBRANCH 104 105
ENDBRANCH  92 104
ENDBRANCH  88  92
ENDBRANCH  87  90
BRANCH  87 111
ATOM    111  C   UNK A   3       7.134   2.411  11.226  0.00  0.00    +0.000 C 
BRANCH 111 112
ATOM    112  C   UNK A   3       6.343   1.898  10.029  0.00  0.00    +0.000 A 
ATOM    113  C   UNK A   3       5.239   2.622   9.581  0.00  0.00    +0.000 A 
ATOM    114  C   UNK A   3       4.511   2.162   8.497  0.00  0.00    +0.000 A 
ATOM    115  C   UNK A   3       4.902   1.015   7.845  0.00  0.00    +0.000 A 
ATOM    116  C   UNK A   3       6.002   0.275   8.220  0.00  0.00    +0.000 A 
ATOM    117  C   UNK A   3       6.661   0.755   9.333  0.00  0.00    +0.000 A 
ENDBRANCH 111 112
ENDBRANCH  87 111
ENDBRANCH  83  87
ENDBRANCH   1  84
BRANCH   9 118
ATOM    118  C   UNK A   6      13.891  -6.951  12.476  0.00  0.00    +0.000 C 
ATOM    119  O   UNK A   6      12.824  -7.284  13.006  0.00  0.00    +0.000 OA
ENDBRANCH   9 118
BRANCH   5 120
ATOM    120  CB  VAL A   5      10.771  -4.412  10.511  0.00  0.00    +0.000 C 
BRANCH 120 121
ATOM    121  CG  VAL A   5       9.313  -4.183  10.173  0.00  0.00    +0.000 A 
ATOM    122  CD2 VAL A   5       8.294  -4.803  10.876  0.00  0.00    +0.000 A 
ATOM    123  CE2 VAL A   5       6.968  -4.532  10.559  0.00  0.00    +0.000 A 
ATOM    124  CZ  VAL A   5       6.650  -3.695   9.510  0.00  0.00    +0.000 A 
ATOM    125  CE1 VAL A   5       7.652  -3.112   8.753  0.00  0.00    +0.000 A 
ATOM    126  CD1 VAL A   5       8.977  -3.347   9.105  0.00  0.00    +0.000 A 
ENDBRANCH 120 121
ENDBRANCH   5 120
TORSDOF 42
REMARK  Name = ../refined-set-2016/1zge/1zge_pocket.pdb
REMARK  145 active torsions:
REMARK  status: ('A' for Active; 'I' for Inactive)
REMARK    1  A    between atoms: _1  and  _3
REMARK    2  A    between atoms: _3  and  _4
REMARK    3  A    between atoms: _3  and  _6
REMARK    4  A    between atoms: _6  and  _7
REMARK    5  A    between atoms: _17  and  _19
REMARK    6  A    between atoms: _19  and  _20
REMARK    7  A    between atoms: _19  and  _22
REMARK    8  A    between atoms: _22  and  _23
REMARK    9  A    between atoms: _28  and  _29
REMARK   10  A    between atoms: _31  and  _33
REMARK   11  A    between atoms: _33  and  _34
REMARK   12  A    between atoms: _33  and  _36
REMARK   13  A    between atoms: _36  and  _37
REMARK   14  A    between atoms: _40  and  _41
REMARK   15  A    between atoms: _46  and  _48
REMARK   16  A    between atoms: _48  and  _49
REMARK   17  A    between atoms: _48  and  _51
REMARK   18  A    between atoms: _51  and  _52
REMARK   19  A    between atoms: _57  and  _59
REMARK   20  A    between atoms: _59  and  _60
REMARK   21  A    between atoms: _59  and  _62
REMARK   22  A    between atoms: _62  and  _63
REMARK   23  A    between atoms: _68  and  _70
REMARK   24  A    between atoms: _70  and  _71
REMARK   25  A    between atoms: _74  and  _76
REMARK   26  A    between atoms: _76  and  _77
REMARK   27  A    between atoms: _76  and  _79
REMARK   28  A    between atoms: _79  and  _80
REMARK   29  A    between atoms: _85  and  _87
REMARK   30  A    between atoms: _87  and  _88
REMARK   31  A    between atoms: _87  and  _90
REMARK   32  A    between atoms: _90  and  _91
REMARK   33  A    between atoms: _94  and  _96
REMARK   34  A    between atoms: _96  and  _97
REMARK   35  A    between atoms: _96  and  _99
REMARK   36  A    between atoms: _99  and  _100
REMARK   37  A    between atoms: _100  and  _101
REMARK   38  A    between atoms: _106  and  _108
REMARK   39  A    between atoms: _108  and  _109
REMARK   40  A    between atoms: _108  and  _111
REMARK   41  A    between atoms: _111  and  _112
REMARK   42  A    between atoms: _118  and  _120
REMARK   43  A    between atoms: _131  and  _134
REMARK   44  A    between atoms: _134  and  _135
REMARK   45  A    between atoms: _143  and  _144
REMARK   46  A    between atoms: _152  and  _154
REMARK   47  A    between atoms: _154  and  _155
REMARK   48  A    between atoms: _154  and  _157
REMARK   49  A    between atoms: _157  and  _158
REMARK   50  A    between atoms: _158  and  _159
REMARK   51  A    between atoms: _162  and  _164
REMARK   52  A    between atoms: _164  and  _165
REMARK   53  A    between atoms: _164  and  _167
REMARK   54  A    between atoms: _167  and  _168
REMARK   55  A    between atoms: _173  and  _175
REMARK   56  A    between atoms: _175  and  _176
REMARK   57  A    between atoms: _175  and  _178
REMARK   58  A    between atoms: _178  and  _179
REMARK   59  A    between atoms: _179  and  _180
REMARK   60  A    between atoms: _183  and  _185
REMARK   61  A    between atoms: _185  and  _186
REMARK   62  A    between atoms: _185  and  _188
REMARK   63  A    between atoms: _188  and  _189
REMARK   64  A    between atoms: _192  and  _194
REMARK   65  A    between atoms: _194  and  _195
REMARK   66  A    between atoms: _194  and  _197
REMARK   67  A    between atoms: _197  and  _198
REMARK   68  A    between atoms: _199  and  ZN_409
REMARK   69  A    between atoms: _203  and  _205
REMARK   70  A    between atoms: _205  and  _206
REMARK   71  A    between atoms: _205  and  _208
REMARK   72  A    between atoms: _208  and  _209
REMARK   73  A    between atoms: _212  and  _214
REMARK   74  A    between atoms: _214  and  _215
REMARK   75  A    between atoms: _214  and  _217
REMARK   76  A    between atoms: _220  and  _222
REMARK   77  A    between atoms: _222  and  _223
REMARK   78  A    between atoms: _222  and  _225
REMARK   79  A    between atoms: _225  and  _226
REMARK   80  A    between atoms: _231  and  _233
REMARK   81  A    between atoms: _233  and  _234
REMARK   82  A    between atoms: _233  and  _236
REMARK   83  A    between atoms: _236  and  _237
REMARK   84  A    between atoms: _243  and  _245
REMARK   85  A    between atoms: _245  and  _246
REMARK   86  A    between atoms: _245  and  _248
REMARK   87  A    between atoms: _251  and  _253
REMARK   88  A    between atoms: _253  and  _254
REMARK   89  A    between atoms: _253  and  _256
REMARK   90  A    between atoms: _256  and  _257
REMARK   91  A    between atoms: _260  and  _262
REMARK   92  A    between atoms: _262  and  _263
REMARK   93  A    between atoms: _266  and  _268
REMARK   94  A    between atoms: _268  and  _269
REMARK   95  A    between atoms: _268  and  _271
REMARK   96  A    between atoms: _274  and  _276
REMARK   97  A    between atoms: _276  and  _277
REMARK   98  A    between atoms: _276  and  _279
REMARK   99  A    between atoms: _279  and  _280
REMARK  100  A    between atoms: _283  and  _285
REMARK  101  A    between atoms: _285  and  _286
REMARK  102  A    between atoms: _285  and  _288
REMARK  103  A    between atoms: _288  and  _289
REMARK  104  A    between atoms: _291  and  _293
REMARK  105  A    between atoms: _293  and  _294
REMARK  106  A    between atoms: _293  and  _296
REMARK  107  A    between atoms: _296  and  _297
REMARK  108  A    between atoms: _300  and  _302
REMARK  109  A    between atoms: _302  and  _303
REMARK  110  A    between atoms: _302  and  _305
REMARK  111  A    between atoms: _305  and  _306
REMARK  112  A    between atoms: _309  and  _311
REMARK  113  A    between atoms: _311  and  _312
REMARK  114  A    between atoms: _311  and  _314
REMARK  115  A    between atoms: _314  and  _315
REMARK  116  A    between atoms: _319  and  _320
REMARK  117  A    between atoms: _326  and  _327
REMARK  118  A    between atoms: _332  and  _334
REMARK  119  A    between atoms: _334  and  _335
REMARK  120  A    between atoms: _334  and  _337
REMARK  121  A    between atoms: _337  and  _338
REMARK  122  A    between atoms: _341  and  _343
REMARK  123  A    between atoms: _343  and  _344
REMARK  124  A    between atoms: _343  and  _346
REMARK  125  A    between atoms: _346  and  _347
REMARK  126  A    between atoms: _350  and  _352
REMARK  127  A    between atoms: _352  and  _353
REMARK  128  A    between atoms: _352  and  _355
REMARK  129  A    between atoms: _357  and  _359
REMARK  130  A    between atoms: _359  and  _360
REMARK  131  A    between atoms: _359  and  _362
REMARK  132  A    between atoms: _365  and  _367
REMARK  133  A    between atoms: _367  and  _368
REMARK  134  A    between atoms: _367  and  _370
REMARK  135  A    between atoms: _370  and  _371
REMARK  136  A    between atoms: _381  and  _383
REMARK  137  A    between atoms: _383  and  _384
REMARK  138  A    between atoms: _383  and  _386
REMARK  139  A    between atoms: _386  and  _387
REMARK  140  A    between atoms: _392  and  _394
REMARK  141  A    between atoms: _394  and  _395
REMARK  142  A    between atoms: _394  and  _397
REMARK  143  A    between atoms: _397  and  _398
REMARK  144  A    between atoms: _398  and  _399
REMARK  145  A    between atoms: _399  and  _400
REMARK                            x       y       z     vdW  Elec       q    Type
REMARK                         _______ _______ _______ _____ _____    ______ ____
ROOT
ATOM      1  C   GLU A   1      15.261  -6.666  21.067  0.00  0.00    +0.238 C 
ATOM      2  O   GLU A   1      16.014  -7.258  21.848  0.00  0.00    -0.274 OA
ATOM      3  N   HIS A   2      14.102  -6.159  21.505  0.00  0.00    -0.298 N 
ATOM      4  H   HIS A   2      13.533  -5.538  20.895  0.00  0.00    +0.150 HD
ENDROOT
BRANCH   1   5
ATOM      5  CA  GLU A   1      15.567  -6.491  19.594  0.00  0.00    +0.145 C 
BRANCH   5   6
ATOM      6  N   GLU A   1      14.588  -7.213  18.800  0.00  0.00    -0.238 NA
ATOM      7  H   GLU A   1      13.702  -6.721  18.569  0.00  0.00    +0.142 HD
ENDBRANCH   5   6
BRANCH   5   8
ATOM      8  CB  GLU A   1      15.575  -5.025  19.159  0.00  0.00    +0.038 C 
BRANCH   8   9
ATOM      9  CG  GLU A   1      15.933  -4.867  17.689  0.00  0.00    +0.116 C 
BRANCH   9  10
ATOM     10  CD  GLU A   1      16.729  -3.625  17.378  0.00  0.00    +0.365 C 
ATOM     11  OE2 GLU A   1      16.156  -2.527  17.532  0.00  0.00    -0.246 OA
ATOM     12  OE1 GLU A   1      17.904  -3.768  16.968  0.00  0.00    -0.246 OA
ENDBRANCH   9  10
ENDBRANCH   8   9
ENDBRANCH   5   8
ENDBRANCH   1   5
BRANCH   3  13
ATOM     13  CA  HIS A   2      13.657  -6.487  22.832  0.00  0.00    +0.143 C 
BRANCH  13  14
ATOM     14  C   HIS A   2      13.327  -7.979  22.873  0.00  0.00    +0.227 C 
ATOM     15  O   HIS A   2      13.001  -8.531  21.839  0.00  0.00    -0.286 OA
ENDBRANCH  13  14
BRANCH  13  16
ATOM     16  CB  HIS A   2      12.422  -5.690  23.256  0.00  0.00    +0.075 C 
BRANCH  16  17
ATOM     17  CG  HIS A   2      12.757  -4.229  23.347  0.00  0.00    +0.082 A 
ATOM     18  CD2 HIS A   2      13.199  -3.501  24.384  0.00  0.00    +0.115 A 
ATOM     19  NE2 HIS A   2      13.369  -2.209  23.960  0.00  0.00    -0.221 NA
ATOM     20  CE1 HIS A   2      13.039  -2.155  22.674  0.00  0.00    +0.199 A 
ATOM     21  ND1 HIS A   2      12.663  -3.372  22.264  0.00  0.00    -0.227 NA
ENDBRANCH  16  17
ENDBRANCH  13  16
ENDBRANCH   3  13
TORSDOF 9
REMARK  Name = ../refined-set-2016/1zge/1zge_pocket.pdb
REMARK  145 active torsions:
REMARK  status: ('A' for Active; 'I' for Inactive)
REMARK    1  A    between atoms: _1  and  _3
REMARK    2  A    between atoms: _3  and  _4
REMARK    3  A    between atoms: _3  and  _6
REMARK    4  A    between atoms: _6  and  _7
REMARK    5  A    between atoms: _17  and  _19
REMARK    6  A    between atoms: _19  and  _20
REMARK    7  A    between atoms: _19  and  _22
REMARK    8  A    between atoms: _22  and  _23
REMARK    9  A    between atoms: _28  and  _29
REMARK   10  A    between atoms: _31  and  _33
REMARK   11  A    between atoms: _33  and  _34
REMARK   12  A    between atoms: _33  and  _36
REMARK   13  A    between atoms: _36  and  _37
REMARK   14  A    between atoms: _40  and  _41
REMARK   15  A    between atoms: _46  and  _48
REMARK   16  A    between atoms: _48  and  _49
REMARK   17  A    between atoms: _48  and  _51
REMARK   18  A    between atoms: _51  and  _52
REMARK   19  A    between atoms: _57  and  _59
REMARK   20  A    between atoms: _59  and  _60
REMARK   21  A    between atoms: _59  and  _62
REMARK   22  A    between atoms: _62  and  _63
REMARK   23  A    between atoms: _68  and  _70
REMARK   24  A    between atoms: _70  and  _71
REMARK   25  A    between atoms: _74  and  _76
REMARK   26  A    between atoms: _76  and  _77
REMARK   27  A    between atoms: _76  and  _79
REMARK   28  A    between atoms: _79  and  _80
REMARK   29  A    between atoms: _85  and  _87
REMARK   30  A    between atoms: _87  and  _88
REMARK   31  A    between atoms: _87  and  _90
REMARK   32  A    between atoms: _90  and  _91
REMARK   33  A    between atoms: _94  and  _96
REMARK   34  A    between atoms: _96  and  _97
REMARK   35  A    between atoms: _96  and  _99
REMARK   36  A    between atoms: _99  and  _100
REMARK   37  A    between atoms: _100  and  _101
REMARK   38  A    between atoms: _106  and  _108
REMARK   39  A    between atoms: _108  and  _109
REMARK   40  A    between atoms: _108  and  _111
REMARK   41  A    between atoms: _111  and  _112
REMARK   42  A    between atoms: _118  and  _120
REMARK   43  A    between atoms: _131  and  _134
REMARK   44  A    between atoms: _134  and  _135
REMARK   45  A    between atoms: _143  and  _144
REMARK   46  A    between atoms: _152  and  _154
REMARK   47  A    between atoms: _154  and  _155
REMARK   48  A    between atoms: _154  and  _157
REMARK   49  A    between atoms: _157  and  _158
REMARK   50  A    between atoms: _158  and  _159
REMARK   51  A    between atoms: _162  and  _164
REMARK   52  A    between atoms: _164  and  _165
REMARK   53  A    between atoms: _164  and  _167
REMARK   54  A    between atoms: _167  and  _168
REMARK   55  A    between atoms: _173  and  _175
REMARK   56  A    between atoms: _175  and  _176
REMARK   57  A    between atoms: _175  and  _178
REMARK   58  A    between atoms: _178  and  _179
REMARK   59  A    between atoms: _179  and  _180
REMARK   60  A    between atoms: _183  and  _185
REMARK   61  A    between atoms: _185  and  _186
REMARK   62  A    between atoms: _185  and  _188
REMARK   63  A    between atoms: _188  and  _189
REMARK   64  A    between atoms: _192  and  _194
REMARK   65  A    between atoms: _194  and  _195
REMARK   66  A    between atoms: _194  and  _197
REMARK   67  A    between atoms: _197  and  _198
REMARK   68  A    between atoms: _199  and  ZN_409
REMARK   69  A    between atoms: _203  and  _205
REMARK   70  A    between atoms: _205  and  _206
REMARK   71  A    between atoms: _205  and  _208
REMARK   72  A    between atoms: _208  and  _209
REMARK   73  A    between atoms: _212  and  _214
REMARK   74  A    between atoms: _214  and  _215
REMARK   75  A    between atoms: _214  and  _217
REMARK   76  A    between atoms: _220  and  _222
REMARK   77  A    between atoms: _222  and  _223
REMARK   78  A    between atoms: _222  and  _225
REMARK   79  A    between atoms: _225  and  _226
REMARK   80  A    between atoms: _231  and  _233
REMARK   81  A    between atoms: _233  and  _234
REMARK   82  A    between atoms: _233  and  _236
REMARK   83  A    between atoms: _236  and  _237
REMARK   84  A    between atoms: _243  and  _245
REMARK   85  A    between atoms: _245  and  _246
REMARK   86  A    between atoms: _245  and  _248
REMARK   87  A    between atoms: _251  and  _253
REMARK   88  A    between atoms: _253  and  _254
REMARK   89  A    between atoms: _253  and  _256
REMARK   90  A    between atoms: _256  and  _257
REMARK   91  A    between atoms: _260  and  _262
REMARK   92  A    between atoms: _262  and  _263
REMARK   93  A    between atoms: _266  and  _268
REMARK   94  A    between atoms: _268  and  _269
REMARK   95  A    between atoms: _268  and  _271
REMARK   96  A    between atoms: _274  and  _276
REMARK   97  A    between atoms: _276  and  _277
REMARK   98  A    between atoms: _276  and  _279
REMARK   99  A    between atoms: _279  and  _280
REMARK  100  A    between atoms: _283  and  _285
REMARK  101  A    between atoms: _285  and  _286
REMARK  102  A    between atoms: _285  and  _288
REMARK  103  A    between atoms: _288  and  _289
REMARK  104  A    between atoms: _291  and  _293
REMARK  105  A    between atoms: _293  and  _294
REMARK  106  A    between atoms: _293  and  _296
REMARK  107  A    between atoms: _296  and  _297
REMARK  108  A    between atoms: _300  and  _302
REMARK  109  A    between atoms: _302  and  _303
REMARK  110  A    between atoms: _302  and  _305
REMARK  111  A    between atoms: _305  and  _306
REMARK  112  A    between atoms: _309  and  _311
REMARK  113  A    between atoms: _311  and  _312
REMARK  114  A    between atoms: _311  and  _314
REMARK  115  A    between atoms: _314  and  _315
REMARK  116  A    between atoms: _319  and  _320
REMARK  117  A    between atoms: _326  and  _327
REMARK  118  A    between atoms: _332  and  _334
REMARK  119  A    between atoms: _334  and  _335
REMARK  120  A    between atoms: _334  and  _337
REMARK  121  A    between atoms: _337  and  _338
REMARK  122  A    between atoms: _341  and  _343
REMARK  123  A    between atoms: _343  and  _344
REMARK  124  A    between atoms: _343  and  _346
REMARK  125  A    between atoms: _346  and  _347
REMARK  126  A    between atoms: _350  and  _352
REMARK  127  A    between atoms: _352  and  _353
REMARK  128  A    between atoms: _352  and  _355
REMARK  129  A    between atoms: _357  and  _359
REMARK  130  A    between atoms: _359  and  _360
REMARK  131  A    between atoms: _359  and  _362
REMARK  132  A    between atoms: _365  and  _367
REMARK  133  A    between atoms: _367  and  _368
REMARK  134  A    between atoms: _367  and  _370
REMARK  135  A    between atoms: _370  and  _371
REMARK  136  A    between atoms: _381  and  _383
REMARK  137  A    between atoms: _383  and  _384
REMARK  138  A    between atoms: _383  and  _386
REMARK  139  A    between atoms: _386  and  _387
REMARK  140  A    between atoms: _392  and  _394
REMARK  141  A    between atoms: _394  and  _395
REMARK  142  A    between atoms: _394  and  _397
REMARK  143  A    between atoms: _397  and  _398
REMARK  144  A    between atoms: _398  and  _399
REMARK  145  A    between atoms: _399  and  _400
REMARK                            x       y       z     vdW  Elec       q    Type
REMARK                         _______ _______ _______ _____ _____    ______ ____
ROOT
ATOM      1  CB  PHE A   1      13.535  14.737  13.950  0.00  0.00    +0.051 C 
ENDROOT
BRANCH   1   2
ATOM      2  CG  PHE A   1      14.155  13.386  14.291  0.00  0.00    -0.020 A 
ATOM      3  CD2 PHE A   1      13.355  12.361  14.764  0.00  0.00    -0.004 A 
ATOM      4  CE2 PHE A   1      13.915  11.139  15.083  0.00  0.00    -0.000 A 
ATOM      5  CZ  PHE A   1      15.267  10.921  14.946  0.00  0.00    -0.000 A 
ATOM      6  CE1 PHE A   1      16.088  11.920  14.467  0.00  0.00    -0.000 A 
ATOM      7  CD1 PHE A   1      15.504  13.130  14.136  0.00  0.00    -0.004 A 
ENDBRANCH   1   2
BRANCH   1   8
ATOM      8  CA  PHE A   1      13.543  15.718  15.126  0.00  0.00    +0.137 C 
BRANCH   8   9
ATOM      9  N   PHE A   1      12.939  16.982  14.741  0.00  0.00    -0.239 NA
ATOM     10  H   PHE A   1      12.604  17.105  13.764  0.00  0.00    +0.142 HD
ENDBRANCH   8   9
BRANCH   8  11
ATOM     11  C   PHE A   1      14.950  15.969  15.651  0.00  0.00    +0.224 C 
ATOM     12  O   PHE A   1      15.384  15.369  16.652  0.00  0.00    -0.287 OA
ENDBRANCH   8  11
ENDBRANCH   1   8
TORSDOF 4
REMARK  Name = ../refined-set-2016/1zge/1zge_pocket.pdb
REMARK  145 active torsions:
REMARK  status: ('A' for Active; 'I' for Inactive)
REMARK    1  A    between atoms: _1  and  _3
REMARK    2  A    between atoms: _3  and  _4
REMARK    3  A    between atoms: _3  and  _6
REMARK    4  A    between atoms: _6  and  _7
REMARK    5  A    between atoms: _17  and  _19
REMARK    6  A    between atoms: _19  and  _20
REMARK    7  A    between atoms: _19  and  _22
REMARK    8  A    between atoms: _22  and  _23
REMARK    9  A    between atoms: _28  and  _29
REMARK   10  A    between atoms: _31  and  _33
REMARK   11  A    between atoms: _33  and  _34
REMARK   12  A    between atoms: _33  and  _36
REMARK   13  A    between atoms: _36  and  _37
REMARK   14  A    between atoms: _40  and  _41
REMARK   15  A    between atoms: _46  and  _48
REMARK   16  A    between atoms: _48  and  _49
REMARK   17  A    between atoms: _48  and  _51
REMARK   18  A    between atoms: _51  and  _52
REMARK   19  A    between atoms: _57  and  _59
REMARK   20  A    between atoms: _59  and  _60
REMARK   21  A    between atoms: _59  and  _62
REMARK   22  A    between atoms: _62  and  _63
REMARK   23  A    between atoms: _68  and  _70
REMARK   24  A    between atoms: _70  and  _71
REMARK   25  A    between atoms: _74  and  _76
REMARK   26  A    between atoms: _76  and  _77
REMARK   27  A    between atoms: _76  and  _79
REMARK   28  A    between atoms: _79  and  _80
REMARK   29  A    between atoms: _85  and  _87
REMARK   30  A    between atoms: _87  and  _88
REMARK   31  A    between atoms: _87  and  _90
REMARK   32  A    between atoms: _90  and  _91
REMARK   33  A    between atoms: _94  and  _96
REMARK   34  A    between atoms: _96  and  _97
REMARK   35  A    between atoms: _96  and  _99
REMARK   36  A    between atoms: _99  and  _100
REMARK   37  A    between atoms: _100  and  _101
REMARK   38  A    between atoms: _106  and  _108
REMARK   39  A    between atoms: _108  and  _109
REMARK   40  A    between atoms: _108  and  _111
REMARK   41  A    between atoms: _111  and  _112
REMARK   42  A    between atoms: _118  and  _120
REMARK   43  A    between atoms: _131  and  _134
REMARK   44  A    between atoms: _134  and  _135
REMARK   45  A    between atoms: _143  and  _144
REMARK   46  A    between atoms: _152  and  _154
REMARK   47  A    between atoms: _154  and  _155
REMARK   48  A    between atoms: _154  and  _157
REMARK   49  A    between atoms: _157  and  _158
REMARK   50  A    between atoms: _158  and  _159
REMARK   51  A    between atoms: _162  and  _164
REMARK   52  A    between atoms: _164  and  _165
REMARK   53  A    between atoms: _164  and  _167
REMARK   54  A    between atoms: _167  and  _168
REMARK   55  A    between atoms: _173  and  _175
REMARK   56  A    between atoms: _175  and  _176
REMARK   57  A    between atoms: _175  and  _178
REMARK   58  A    between atoms: _178  and  _179
REMARK   59  A    between atoms: _179  and  _180
REMARK   60  A    between atoms: _183  and  _185
REMARK   61  A    between atoms: _185  and  _186
REMARK   62  A    between atoms: _185  and  _188
REMARK   63  A    between atoms: _188  and  _189
REMARK   64  A    between atoms: _192  and  _194
REMARK   65  A    between atoms: _194  and  _195
REMARK   66  A    between atoms: _194  and  _197
REMARK   67  A    between atoms: _197  and  _198
REMARK   68  A    between atoms: _199  and  ZN_409
REMARK   69  A    between atoms: _203  and  _205
REMARK   70  A    between atoms: _205  and  _206
REMARK   71  A    between atoms: _205  and  _208
REMARK   72  A    between atoms: _208  and  _209
REMARK   73  A    between atoms: _212  and  _214
REMARK   74  A    between atoms: _214  and  _215
REMARK   75  A    between atoms: _214  and  _217
REMARK   76  A    between atoms: _220  and  _222
REMARK   77  A    between atoms: _222  and  _223
REMARK   78  A    between atoms: _222  and  _225
REMARK   79  A    between atoms: _225  and  _226
REMARK   80  A    between atoms: _231  and  _233
REMARK   81  A    between atoms: _233  and  _234
REMARK   82  A    between atoms: _233  and  _236
REMARK   83  A    between atoms: _236  and  _237
REMARK   84  A    between atoms: _243  and  _245
REMARK   85  A    between atoms: _245  and  _246
REMARK   86  A    between atoms: _245  and  _248
REMARK   87  A    between atoms: _251  and  _253
REMARK   88  A    between atoms: _253  and  _254
REMARK   89  A    between atoms: _253  and  _256
REMARK   90  A    between atoms: _256  and  _257
REMARK   91  A    between atoms: _260  and  _262
REMARK   92  A    between atoms: _262  and  _263
REMARK   93  A    between atoms: _266  and  _268
REMARK   94  A    between atoms: _268  and  _269
REMARK   95  A    between atoms: _268  and  _271
REMARK   96  A    between atoms: _274  and  _276
REMARK   97  A    between atoms: _276  and  _277
REMARK   98  A    between atoms: _276  and  _279
REMARK   99  A    between atoms: _279  and  _280
REMARK  100  A    between atoms: _283  and  _285
REMARK  101  A    between atoms: _285  and  _286
REMARK  102  A    between atoms: _285  and  _288
REMARK  103  A    between atoms: _288  and  _289
REMARK  104  A    between atoms: _291  and  _293
REMARK  105  A    between atoms: _293  and  _294
REMARK  106  A    between atoms: _293  and  _296
REMARK  107  A    between atoms: _296  and  _297
REMARK  108  A    between atoms: _300  and  _302
REMARK  109  A    between atoms: _302  and  _303
REMARK  110  A    between atoms: _302  and  _305
REMARK  111  A    between atoms: _305  and  _306
REMARK  112  A    between atoms: _309  and  _311
REMARK  113  A    between atoms: _311  and  _312
REMARK  114  A    between atoms: _311  and  _314
REMARK  115  A    between atoms: _314  and  _315
REMARK  116  A    between atoms: _319  and  _320
REMARK  117  A    between atoms: _326  and  _327
REMARK  118  A    between atoms: _332  and  _334
REMARK  119  A    between atoms: _334  and  _335
REMARK  120  A    between atoms: _334  and  _337
REMARK  121  A    between atoms: _337  and  _338
REMARK  122  A    between atoms: _341  and  _343
REMARK  123  A    between atoms: _343  and  _344
REMARK  124  A    between atoms: _343  and  _346
REMARK  125  A    between atoms: _346  and  _347
REMARK  126  A    between atoms: _350  and  _352
REMARK  127  A    between atoms: _352  and  _353
REMARK  128  A    between atoms: _352  and  _355
REMARK  129  A    between atoms: _357  and  _359
REMARK  130  A    between atoms: _359  and  _360
REMARK  131  A    between atoms: _359  and  _362
REMARK  132  A    between atoms: _365  and  _367
REMARK  133  A    between atoms: _367  and  _368
REMARK  134  A    between atoms: _367  and  _370
REMARK  135  A    between atoms: _370  and  _371
REMARK  136  A    between atoms: _381  and  _383
REMARK  137  A    between atoms: _383  and  _384
REMARK  138  A    between atoms: _383  and  _386
REMARK  139  A    between atoms: _386  and  _387
REMARK  140  A    between atoms: _392  and  _394
REMARK  141  A    between atoms: _394  and  _395
REMARK  142  A    between atoms: _394  and  _397
REMARK  143  A    between atoms: _397  and  _398
REMARK  144  A    between atoms: _398  and  _399
REMARK  145  A    between atoms: _399  and  _400
REMARK                            x       y       z     vdW  Elec       q    Type
REMARK                         _______ _______ _______ _____ _____    ______ ____
ROOT
ATOM      1  CA  VAL A   1      17.464  13.876  19.810  0.00  0.00    +0.133 C 
ENDROOT
BRANCH   1   2
ATOM      2  CB  VAL A   1      17.863  13.068  18.561  0.00  0.00    +0.023 C 
ATOM      3  CG2 VAL A   1      16.627  12.359  18.041  0.00  0.00    +0.002 C 
ATOM      4  CG1 VAL A   1      18.487  13.930  17.487  0.00  0.00    +0.002 C 
ENDBRANCH   1   2
BRANCH   1   5
ATOM      5  N   VAL A   1      16.459  14.891  19.451  0.00  0.00    -0.239 NA
ATOM      6  H   VAL A   1      16.467  15.315  18.501  0.00  0.00    +0.142 HD
ENDBRANCH   1   5
BRANCH   1   7
ATOM      7  C   VAL A   1      18.655  14.465  20.537  0.00  0.00    +0.224 C 
ATOM      8  O   VAL A   1      19.720  13.868  20.700  0.00  0.00    -0.287 OA
ENDBRANCH   1   7
TORSDOF 3
REMARK  Name = ../refined-set-2016/1zge/1zge_pocket.pdb
REMARK  145 active torsions:
REMARK  status: ('A' for Active; 'I' for Inactive)
REMARK    1  A    between atoms: _1  and  _3
REMARK    2  A    between atoms: _3  and  _4
REMARK    3  A    between atoms: _3  and  _6
REMARK    4  A    between atoms: _6  and  _7
REMARK    5  A    between atoms: _17  and  _19
REMARK    6  A    between atoms: _19  and  _20
REMARK    7  A    between atoms: _19  and  _22
REMARK    8  A    between atoms: _22  and  _23
REMARK    9  A    between atoms: _28  and  _29
REMARK   10  A    between atoms: _31  and  _33
REMARK   11  A    between atoms: _33  and  _34
REMARK   12  A    between atoms: _33  and  _36
REMARK   13  A    between atoms: _36  and  _37
REMARK   14  A    between atoms: _40  and  _41
REMARK   15  A    between atoms: _46  and  _48
REMARK   16  A    between atoms: _48  and  _49
REMARK   17  A    between atoms: _48  and  _51
REMARK   18  A    between atoms: _51  and  _52
REMARK   19  A    between atoms: _57  and  _59
REMARK   20  A    between atoms: _59  and  _60
REMARK   21  A    between atoms: _59  and  _62
REMARK   22  A    between atoms: _62  and  _63
REMARK   23  A    between atoms: _68  and  _70
REMARK   24  A    between atoms: _70  and  _71
REMARK   25  A    between atoms: _74  and  _76
REMARK   26  A    between atoms: _76  and  _77
REMARK   27  A    between atoms: _76  and  _79
REMARK   28  A    between atoms: _79  and  _80
REMARK   29  A    between atoms: _85  and  _87
REMARK   30  A    between atoms: _87  and  _88
REMARK   31  A    between atoms: _87  and  _90
REMARK   32  A    between atoms: _90  and  _91
REMARK   33  A    between atoms: _94  and  _96
REMARK   34  A    between atoms: _96  and  _97
REMARK   35  A    between atoms: _96  and  _99
REMARK   36  A    between atoms: _99  and  _100
REMARK   37  A    between atoms: _100  and  _101
REMARK   38  A    between atoms: _106  and  _108
REMARK   39  A    between atoms: _108  and  _109
REMARK   40  A    between atoms: _108  and  _111
REMARK   41  A    between atoms: _111  and  _112
REMARK   42  A    between atoms: _118  and  _120
REMARK   43  A    between atoms: _131  and  _134
REMARK   44  A    between atoms: _134  and  _135
REMARK   45  A    between atoms: _143  and  _144
REMARK   46  A    between atoms: _152  and  _154
REMARK   47  A    between atoms: _154  and  _155
REMARK   48  A    between atoms: _154  and  _157
REMARK   49  A    between atoms: _157  and  _158
REMARK   50  A    between atoms: _158  and  _159
REMARK   51  A    between atoms: _162  and  _164
REMARK   52  A    between atoms: _164  and  _165
REMARK   53  A    between atoms: _164  and  _167
REMARK   54  A    between atoms: _167  and  _168
REMARK   55  A    between atoms: _173  and  _175
REMARK   56  A    between atoms: _175  and  _176
REMARK   57  A    between atoms: _175  and  _178
REMARK   58  A    between atoms: _178  and  _179
REMARK   59  A    between atoms: _179  and  _180
REMARK   60  A    between atoms: _183  and  _185
REMARK   61  A    between atoms: _185  and  _186
REMARK   62  A    between atoms: _185  and  _188
REMARK   63  A    between atoms: _188  and  _189
REMARK   64  A    between atoms: _192  and  _194
REMARK   65  A    between atoms: _194  and  _195
REMARK   66  A    between atoms: _194  and  _197
REMARK   67  A    between atoms: _197  and  _198
REMARK   68  A    between atoms: _199  and  ZN_409
REMARK   69  A    between atoms: _203  and  _205
REMARK   70  A    between atoms: _205  and  _206
REMARK   71  A    between atoms: _205  and  _208
REMARK   72  A    between atoms: _208  and  _209
REMARK   73  A    between atoms: _212  and  _214
REMARK   74  A    between atoms: _214  and  _215
REMARK   75  A    between atoms: _214  and  _217
REMARK   76  A    between atoms: _220  and  _222
REMARK   77  A    between atoms: _222  and  _223
REMARK   78  A    between atoms: _222  and  _225
REMARK   79  A    between atoms: _225  and  _226
REMARK   80  A    between atoms: _231  and  _233
REMARK   81  A    between atoms: _233  and  _234
REMARK   82  A    between atoms: _233  and  _236
REMARK   83  A    between atoms: _236  and  _237
REMARK   84  A    between atoms: _243  and  _245
REMARK   85  A    between atoms: _245  and  _246
REMARK   86  A    between atoms: _245  and  _248
REMARK   87  A    between atoms: _251  and  _253
REMARK   88  A    between atoms: _253  and  _254
REMARK   89  A    between atoms: _253  and  _256
REMARK   90  A    between atoms: _256  and  _257
REMARK   91  A    between atoms: _260  and  _262
REMARK   92  A    between atoms: _262  and  _263
REMARK   93  A    between atoms: _266  and  _268
REMARK   94  A    between atoms: _268  and  _269
REMARK   95  A    between atoms: _268  and  _271
REMARK   96  A    between atoms: _274  and  _276
REMARK   97  A    between atoms: _276  and  _277
REMARK   98  A    between atoms: _276  and  _279
REMARK   99  A    between atoms: _279  and  _280
REMARK  100  A    between atoms: _283  and  _285
REMARK  101  A    between atoms: _285  and  _286
REMARK  102  A    between atoms: _285  and  _288
REMARK  103  A    between atoms: _288  and  _289
REMARK  104  A    between atoms: _291  and  _293
REMARK  105  A    between atoms: _293  and  _294
REMARK  106  A    between atoms: _293  and  _296
REMARK  107  A    between atoms: _296  and  _297
REMARK  108  A    between atoms: _300  and  _302
REMARK  109  A    between atoms: _302  and  _303
REMARK  110  A    between atoms: _302  and  _305
REMARK  111  A    between atoms: _305  and  _306
REMARK  112  A    between atoms: _309  and  _311
REMARK  113  A    between atoms: _311  and  _312
REMARK  114  A    between atoms: _311  and  _314
REMARK  115  A    between atoms: _314  and  _315
REMARK  116  A    between atoms: _319  and  _320
REMARK  117  A    between atoms: _326  and  _327
REMARK  118  A    between atoms: _332  and  _334
REMARK  119  A    between atoms: _334  and  _335
REMARK  120  A    between atoms: _334  and  _337
REMARK  121  A    between atoms: _337  and  _338
REMARK  122  A    between atoms: _341  and  _343
REMARK  123  A    between atoms: _343  and  _344
REMARK  124  A    between atoms: _343  and  _346
REMARK  125  A    between atoms: _346  and  _347
REMARK  126  A    between atoms: _350  and  _352
REMARK  127  A    between atoms: _352  and  _353
REMARK  128  A    between atoms: _352  and  _355
REMARK  129  A    between atoms: _357  and  _359
REMARK  130  A    between atoms: _359  and  _360
REMARK  131  A    between atoms: _359  and  _362
REMARK  132  A    between atoms: _365  and  _367
REMARK  133  A    between atoms: _367  and  _368
REMARK  134  A    between atoms: _367  and  _370
REMARK  135  A    between atoms: _370  and  _371
REMARK  136  A    between atoms: _381  and  _383
REMARK  137  A    between atoms: _383  and  _384
REMARK  138  A    between atoms: _383  and  _386
REMARK  139  A    between atoms: _386  and  _387
REMARK  140  A    between atoms: _392  and  _394
REMARK  141  A    between atoms: _394  and  _395
REMARK  142  A    between atoms: _394  and  _397
REMARK  143  A    between atoms: _397  and  _398
REMARK  144  A    between atoms: _398  and  _399
REMARK  145  A    between atoms: _399  and  _400
REMARK                            x       y       z     vdW  Elec       q    Type
REMARK                         _______ _______ _______ _____ _____    ______ ____
ROOT
ATOM      1  C   ALA A   2       8.884   6.782  20.641  0.00  0.00    +0.241 C 
ATOM      2  N   VAL A   3       9.313   5.568  20.912  0.00  0.00    -0.297 N 
ATOM      3  H   VAL A   3       9.724   5.376  21.848  0.00  0.00    +0.150 HD
ATOM      4  O   ALA A   2       8.452   7.169  19.552  0.00  0.00    -0.273 OA
ENDROOT
BRANCH   1   5
ATOM      5  CA  ALA A   2       8.985   7.791  21.792  0.00  0.00    +0.149 C 
ATOM      6  CB  ALA A   2       7.627   8.167  22.322  0.00  0.00    +0.031 C 
BRANCH   5   9
ATOM      7  C   LEU A   1      10.690   9.494  21.980  0.00  0.00    +0.238 C 
ATOM      8  O   LEU A   1      10.956   9.193  23.154  0.00  0.00    -0.274 OA
ATOM      9  N   ALA A   2       9.712   8.944  21.282  0.00  0.00    -0.297 N 
ATOM     10  H   ALA A   2       9.458   9.341  20.355  0.00  0.00    +0.150 HD
BRANCH   7  11
ATOM     11  CA  LEU A   1      11.563  10.504  21.242  0.00  0.00    +0.145 C 
BRANCH  11  12
ATOM     12  N   LEU A   1      12.185  11.468  22.135  0.00  0.00    -0.238 NA
ATOM     13  H   LEU A   1      12.699  11.140  22.977  0.00  0.00    +0.142 HD
ENDBRANCH  11  12
BRANCH  11  14
ATOM     14  CB  LEU A   1      12.620   9.680  20.495  0.00  0.00    +0.026 C 
BRANCH  14  15
ATOM     15  CG  LEU A   1      13.589  10.459  19.615  0.00  0.00    +0.002 C 
ATOM     16  CD2 LEU A   1      14.561   9.501  18.924  0.00  0.00    +0.000 C 
ATOM     17  CD1 LEU A   1      12.844  11.306  18.606  0.00  0.00    +0.000 C 
ENDBRANCH  14  15
ENDBRANCH  11  14
ENDBRANCH   7  11
ENDBRANCH   5   9
ENDBRANCH   1   5
BRANCH   2  18
ATOM     18  CA  VAL A   3       9.230   4.483  19.939  0.00  0.00    +0.149 C 
BRANCH  18  19
ATOM     19  C   VAL A   3       8.229   3.451  20.502  0.00  0.00    +0.241 C 
ATOM     20  O   VAL A   3       8.380   3.009  21.627  0.00  0.00    -0.273 OA
ATOM     21  N   LEU A   4       7.236   3.152  19.676  0.00  0.00    -0.298 N 
ATOM     22  H   LEU A   4       7.171   3.693  18.790  0.00  0.00    +0.150 HD
BRANCH  21  23
ATOM     23  CA  LEU A   4       6.228   2.126  19.911  0.00  0.00    +0.137 C 
BRANCH  23  24
ATOM     24  C   LEU A   4       6.752   0.875  19.235  0.00  0.00    +0.227 C 
ATOM     25  O   LEU A   4       6.951   0.872  18.004  0.00  0.00    -0.286 OA
ENDBRANCH  23  24
BRANCH  23  26
ATOM     26  CB  LEU A   4       4.885   2.571  19.354  0.00  0.00    +0.028 C 
BRANCH  26  27
ATOM     27  CG  LEU A   4       3.729   1.603  19.518  0.00  0.00    +0.002 C 
ATOM     28  CD2 LEU A   4       3.529   1.290  20.987  0.00  0.00    +0.000 C 
ATOM     29  CD1 LEU A   4       2.461   2.192  18.882  0.00  0.00    +0.000 C 
ENDBRANCH  26  27
ENDBRANCH  23  26
ENDBRANCH  21  23
ENDBRANCH  18  19
BRANCH  18  30
ATOM     30  CB  VAL A   3      10.574   3.843  19.611  0.00  0.00    +0.027 C 
ATOM     31  CG2 VAL A   3      11.555   4.924  19.162  0.00  0.00    +0.002 C 
ATOM     32  CG1 VAL A   3      10.416   2.803  18.512  0.00  0.00    +0.002 C 
ENDBRANCH  18  30
ENDBRANCH   2  18
TORSDOF 13
REMARK  Name = ../refined-set-2016/1zge/1zge_pocket.pdb
REMARK  145 active torsions:
REMARK  status: ('A' for Active; 'I' for Inactive)
REMARK    1  A    between atoms: _1  and  _3
REMARK    2  A    between atoms: _3  and  _4
REMARK    3  A    between atoms: _3  and  _6
REMARK    4  A    between atoms: _6  and  _7
REMARK    5  A    between atoms: _17  and  _19
REMARK    6  A    between atoms: _19  and  _20
REMARK    7  A    between atoms: _19  and  _22
REMARK    8  A    between atoms: _22  and  _23
REMARK    9  A    between atoms: _28  and  _29
REMARK   10  A    between atoms: _31  and  _33
REMARK   11  A    between atoms: _33  and  _34
REMARK   12  A    between atoms: _33  and  _36
REMARK   13  A    between atoms: _36  and  _37
REMARK   14  A    between atoms: _40  and  _41
REMARK   15  A    between atoms: _46  and  _48
REMARK   16  A    between atoms: _48  and  _49
REMARK   17  A    between atoms: _48  and  _51
REMARK   18  A    between atoms: _51  and  _52
REMARK   19  A    between atoms: _57  and  _59
REMARK   20  A    between atoms: _59  and  _60
REMARK   21  A    between atoms: _59  and  _62
REMARK   22  A    between atoms: _62  and  _63
REMARK   23  A    between atoms: _68  and  _70
REMARK   24  A    between atoms: _70  and  _71
REMARK   25  A    between atoms: _74  and  _76
REMARK   26  A    between atoms: _76  and  _77
REMARK   27  A    between atoms: _76  and  _79
REMARK   28  A    between atoms: _79  and  _80
REMARK   29  A    between atoms: _85  and  _87
REMARK   30  A    between atoms: _87  and  _88
REMARK   31  A    between atoms: _87  and  _90
REMARK   32  A    between atoms: _90  and  _91
REMARK   33  A    between atoms: _94  and  _96
REMARK   34  A    between atoms: _96  and  _97
REMARK   35  A    between atoms: _96  and  _99
REMARK   36  A    between atoms: _99  and  _100
REMARK   37  A    between atoms: _100  and  _101
REMARK   38  A    between atoms: _106  and  _108
REMARK   39  A    between atoms: _108  and  _109
REMARK   40  A    between atoms: _108  and  _111
REMARK   41  A    between atoms: _111  and  _112
REMARK   42  A    between atoms: _118  and  _120
REMARK   43  A    between atoms: _131  and  _134
REMARK   44  A    between atoms: _134  and  _135
REMARK   45  A    between atoms: _143  and  _144
REMARK   46  A    between atoms: _152  and  _154
REMARK   47  A    between atoms: _154  and  _155
REMARK   48  A    between atoms: _154  and  _157
REMARK   49  A    between atoms: _157  and  _158
REMARK   50  A    between atoms: _158  and  _159
REMARK   51  A    between atoms: _162  and  _164
REMARK   52  A    between atoms: _164  and  _165
REMARK   53  A    between atoms: _164  and  _167
REMARK   54  A    between atoms: _167  and  _168
REMARK   55  A    between atoms: _173  and  _175
REMARK   56  A    between atoms: _175  and  _176
REMARK   57  A    between atoms: _175  and  _178
REMARK   58  A    between atoms: _178  and  _179
REMARK   59  A    between atoms: _179  and  _180
REMARK   60  A    between atoms: _183  and  _185
REMARK   61  A    between atoms: _185  and  _186
REMARK   62  A    between atoms: _185  and  _188
REMARK   63  A    between atoms: _188  and  _189
REMARK   64  A    between atoms: _192  and  _194
REMARK   65  A    between atoms: _194  and  _195
REMARK   66  A    between atoms: _194  and  _197
REMARK   67  A    between atoms: _197  and  _198
REMARK   68  A    between atoms: _199  and  ZN_409
REMARK   69  A    between atoms: _203  and  _205
REMARK   70  A    between atoms: _205  and  _206
REMARK   71  A    between atoms: _205  and  _208
REMARK   72  A    between atoms: _208  and  _209
REMARK   73  A    between atoms: _212  and  _214
REMARK   74  A    between atoms: _214  and  _215
REMARK   75  A    between atoms: _214  and  _217
REMARK   76  A    between atoms: _220  and  _222
REMARK   77  A    between atoms: _222  and  _223
REMARK   78  A    between atoms: _222  and  _225
REMARK   79  A    between atoms: _225  and  _226
REMARK   80  A    between atoms: _231  and  _233
REMARK   81  A    between atoms: _233  and  _234
REMARK   82  A    between atoms: _233  and  _236
REMARK   83  A    between atoms: _236  and  _237
REMARK   84  A    between atoms: _243  and  _245
REMARK   85  A    between atoms: _245  and  _246
REMARK   86  A    between atoms: _245  and  _248
REMARK   87  A    between atoms: _251  and  _253
REMARK   88  A    between atoms: _253  and  _254
REMARK   89  A    between atoms: _253  and  _256
REMARK   90  A    between atoms: _256  and  _257
REMARK   91  A    between atoms: _260  and  _262
REMARK   92  A    between atoms: _262  and  _263
REMARK   93  A    between atoms: _266  and  _268
REMARK   94  A    between atoms: _268  and  _269
REMARK   95  A    between atoms: _268  and  _271
REMARK   96  A    between atoms: _274  and  _276
REMARK   97  A    between atoms: _276  and  _277
REMARK   98  A    between atoms: _276  and  _279
REMARK   99  A    between atoms: _279  and  _280
REMARK  100  A    between atoms: _283  and  _285
REMARK  101  A    between atoms: _285  and  _286
REMARK  102  A    between atoms: _285  and  _288
REMARK  103  A    between atoms: _288  and  _289
REMARK  104  A    between atoms: _291  and  _293
REMARK  105  A    between atoms: _293  and  _294
REMARK  106  A    between atoms: _293  and  _296
REMARK  107  A    between atoms: _296  and  _297
REMARK  108  A    between atoms: _300  and  _302
REMARK  109  A    between atoms: _302  and  _303
REMARK  110  A    between atoms: _302  and  _305
REMARK  111  A    between atoms: _305  and  _306
REMARK  112  A    between atoms: _309  and  _311
REMARK  113  A    between atoms: _311  and  _312
REMARK  114  A    between atoms: _311  and  _314
REMARK  115  A    between atoms: _314  and  _315
REMARK  116  A    between atoms: _319  and  _320
REMARK  117  A    between atoms: _326  and  _327
REMARK  118  A    between atoms: _332  and  _334
REMARK  119  A    between atoms: _334  and  _335
REMARK  120  A    between atoms: _334  and  _337
REMARK  121  A    between atoms: _337  and  _338
REMARK  122  A    between atoms: _341  and  _343
REMARK  123  A    between atoms: _343  and  _344
REMARK  124  A    between atoms: _343  and  _346
REMARK  125  A    between atoms: _346  and  _347
REMARK  126  A    between atoms: _350  and  _352
REMARK  127  A    between atoms: _352  and  _353
REMARK  128  A    between atoms: _352  and  _355
REMARK  129  A    between atoms: _357  and  _359
REMARK  130  A    between atoms: _359  and  _360
REMARK  131  A    between atoms: _359  and  _362
REMARK  132  A    between atoms: _365  and  _367
REMARK  133  A    between atoms: _367  and  _368
REMARK  134  A    between atoms: _367  and  _370
REMARK  135  A    between atoms: _370  and  _371
REMARK  136  A    between atoms: _381  and  _383
REMARK  137  A    between atoms: _383  and  _384
REMARK  138  A    between atoms: _383  and  _386
REMARK  139  A    between atoms: _386  and  _387
REMARK  140  A    between atoms: _392  and  _394
REMARK  141  A    between atoms: _394  and  _395
REMARK  142  A    between atoms: _394  and  _397
REMARK  143  A    between atoms: _397  and  _398
REMARK  144  A    between atoms: _398  and  _399
REMARK  145  A    between atoms: _399  and  _400
REMARK                            x       y       z     vdW  Elec       q    Type
REMARK                         _______ _______ _______ _____ _____    ______ ____
ROOT
ATOM      1  C   THR A   4      22.331   2.827  16.396  0.00  0.00    +0.246 C 
ATOM      2  O   THR A   4      21.789   3.760  17.027  0.00  0.00    -0.273 OA
ATOM      3  N   PRO A   5      23.580   2.859  15.929  0.00  0.00    -0.272 N 
ATOM      4  CA  PRO A   5      24.306   4.134  15.956  0.00  0.00    +0.152 C 
ATOM      5  CB  PRO A   5      25.501   3.827  15.028  0.00  0.00    +0.031 C 
ATOM      6  CG  PRO A   5      25.786   2.385  15.310  0.00  0.00    +0.024 C 
ATOM      7  CD  PRO A   5      24.388   1.785  15.335  0.00  0.00    +0.094 C 
ENDROOT
BRANCH   4   8
ATOM      8  C   PRO A   5      23.458   5.253  15.396  0.00  0.00    +0.244 C 
ATOM      9  N   PRO A   6      23.503   6.451  15.967  0.00  0.00    -0.272 N 
ATOM     10  CA  PRO A   6      24.387   6.825  17.074  0.00  0.00    +0.152 C 
ATOM     11  CB  PRO A   6      24.445   8.361  16.892  0.00  0.00    +0.031 C 
ATOM     12  CG  PRO A   6      23.098   8.710  16.354  0.00  0.00    +0.024 C 
ATOM     13  CD  PRO A   6      22.725   7.594  15.441  0.00  0.00    +0.094 C 
ATOM     14  O   PRO A   5      22.720   5.027  14.411  0.00  0.00    -0.273 OA
BRANCH  10  15
ATOM     15  C   PRO A   6      23.944   6.527  18.505  0.00  0.00    +0.241 C 
ATOM     16  O   PRO A   6      24.533   7.053  19.477  0.00  0.00    -0.273 OA
ATOM     17  N   LEU A   7      22.941   5.663  18.684  0.00  0.00    -0.297 N 
ATOM     18  H   LEU A   7      22.374   5.380  17.859  0.00  0.00    +0.150 HD
BRANCH  17  19
ATOM     19  CA  LEU A   7      22.605   5.097  19.993  0.00  0.00    +0.149 C 
BRANCH  19  20
ATOM     20  C   LEU A   7      22.244   6.127  21.059  0.00  0.00    +0.241 C 
ATOM     21  O   LEU A   7      22.514   5.910  22.266  0.00  0.00    -0.273 OA
ATOM     22  N   LEU A   8      21.637   7.212  20.599  0.00  0.00    -0.298 N 
ATOM     23  H   LEU A   8      21.386   7.269  19.591  0.00  0.00    +0.150 HD
BRANCH  22  24
ATOM     24  CA  LEU A   8      21.315   8.326  21.480  0.00  0.00    +0.137 C 
BRANCH  24  25
ATOM     25  C   LEU A   8      20.285   7.965  22.544  0.00  0.00    +0.227 C 
ATOM     26  O   LEU A   8      19.261   7.337  22.273  0.00  0.00    -0.286 OA
ENDBRANCH  24  25
BRANCH  24  27
ATOM     27  CB  LEU A   8      20.835   9.518  20.664  0.00  0.00    +0.028 C 
BRANCH  27  28
ATOM     28  CG  LEU A   8      21.864  10.012  19.629  0.00  0.00    +0.002 C 
ATOM     29  CD2 LEU A   8      23.093  10.566  20.335  0.00  0.00    +0.000 C 
ATOM     30  CD1 LEU A   8      21.200  11.006  18.704  0.00  0.00    +0.000 C 
ENDBRANCH  27  28
ENDBRANCH  24  27
ENDBRANCH  22  24
ENDBRANCH  19  20
BRANCH  19  31
ATOM     31  CB  LEU A   7      23.768   4.208  20.465  0.00  0.00    +0.029 C 
BRANCH  31  32
ATOM     32  CG  LEU A   7      24.128   3.020  19.565  0.00  0.00    +0.002 C 
ATOM     33  CD2 LEU A   7      25.518   2.492  19.902  0.00  0.00    +0.000 C 
ATOM     34  CD1 LEU A   7      23.159   1.853  19.638  0.00  0.00    +0.000 C 
ENDBRANCH  31  32
ENDBRANCH  19  31
ENDBRANCH  17  19
ENDBRANCH  10  15
ENDBRANCH   4   8
BRANCH   1  35
ATOM     35  CA  THR A   4      21.470   1.582  16.141  0.00  0.00    +0.176 C 
BRANCH  35  38
ATOM     36  C   THR A   3      20.153   0.516  17.893  0.00  0.00    +0.243 C 
ATOM     37  O   THR A   3      20.749  -0.564  17.779  0.00  0.00    -0.273 OA
ATOM     38  N   THR A   4      20.380   1.562  17.109  0.00  0.00    -0.295 N 
ATOM     39  H   THR A   4      19.761   2.394  17.187  0.00  0.00    +0.150 HD
BRANCH  36  40
ATOM     40  CA  THR A   3      19.124   0.702  18.992  0.00  0.00    +0.176 C 
BRANCH  40  43
ATOM     41  C   LEU A   2      18.924   3.016  19.743  0.00  0.00    +0.241 C 
ATOM     42  O   LEU A   2      19.893   2.899  20.528  0.00  0.00    -0.273 OA
ATOM     43  N   THR A   3      18.515   2.043  18.947  0.00  0.00    -0.295 N 
ATOM     44  H   THR A   3      17.745   2.228  18.273  0.00  0.00    +0.150 HD
BRANCH  41  45
ATOM     45  CA  LEU A   2      18.170   4.350  19.707  0.00  0.00    +0.149 C 
BRANCH  45  48
ATOM     46  C   SER A   1      17.656   4.297  22.067  0.00  0.00    +0.241 C 
ATOM     47  O   SER A   1      16.874   3.366  21.886  0.00  0.00    -0.274 OA
ATOM     48  N   LEU A   2      18.219   4.946  21.044  0.00  0.00    -0.297 N 
ATOM     49  H   LEU A   2      18.686   5.863  21.195  0.00  0.00    +0.150 HD
BRANCH  46  50
ATOM     50  CA  SER A   1      18.063   4.716  23.459  0.00  0.00    +0.174 C 
BRANCH  50  51
ATOM     51  N   SER A   1      17.297   4.078  24.516  0.00  0.00    -0.236 NA
ATOM     52  H   SER A   1      17.096   3.061  24.434  0.00  0.00    +0.142 HD
ENDBRANCH  50  51
BRANCH  50  53
ATOM     53  CB  SER A   1      19.542   4.349  23.687  0.00  0.00    +0.163 C 
BRANCH  53  54
ATOM     54  OG  SER A   1      19.782   3.002  23.305  0.00  0.00    -0.380 OA
ATOM     55  H   SER A   1      19.565   2.889  22.346  0.00  0.00    +0.211 HD
ENDBRANCH  53  54
ENDBRANCH  50  53
ENDBRANCH  46  50
ENDBRANCH  45  48
BRANCH  45  56
ATOM     56  CB  LEU A   2      18.805   5.267  18.670  0.00  0.00    +0.029 C 
BRANCH  56  57
ATOM     57  CG  LEU A   2      18.259   6.689  18.627  0.00  0.00    +0.002 C 
ATOM     58  CD2 LEU A   2      16.810   6.654  18.133  0.00  0.00    +0.000 C 
ATOM     59  CD1 LEU A   2      19.070   7.617  17.756  0.00  0.00    +0.000 C 
ENDBRANCH  56  57
ENDBRANCH  45  56
ENDBRANCH  41  45
ENDBRANCH  40  43
BRANCH  40  60
ATOM     60  CB  THR A   3      18.104  -0.445  18.854  0.00  0.00    +0.137 C 
ATOM     61  CG2 THR A   3      16.987  -0.348  19.879  0.00  0.00    +0.034 C 
BRANCH  60  62
ATOM     62  OG1 THR A   3      17.476  -0.358  17.577  0.00  0.00    -0.382 OA
ATOM     63  HG1 THR A   3      16.819  -1.093  17.483  0.00  0.00    +0.210 HD
ENDBRANCH  60  62
ENDBRANCH  40  60
ENDBRANCH  36  40
ENDBRANCH  35  38
BRANCH  35  64
ATOM     64  CB  THR A   4      21.015   1.596  14.676  0.00  0.00    +0.137 C 
ATOM     65  CG2 THR A   4      19.938   0.566  14.403  0.00  0.00    +0.034 C 
BRANCH  64  66
ATOM     66  OG1 THR A   4      20.423   2.875  14.336  0.00  0.00    -0.382 OA
ATOM     67  HG1 THR A   4      20.137   2.863  13.388  0.00  0.00    +0.210 HD
ENDBRANCH  64  66
ENDBRANCH  35  64
ENDBRANCH   1  35
TORSDOF 26
REMARK  Name = ../refined-set-2016/1zge/1zge_pocket.pdb
REMARK  145 active torsions:
REMARK  status: ('A' for Active; 'I' for Inactive)
REMARK    1  A    between atoms: _1  and  _3
REMARK    2  A    between atoms: _3  and  _4
REMARK    3  A    between atoms: _3  and  _6
REMARK    4  A    between atoms: _6  and  _7
REMARK    5  A    between atoms: _17  and  _19
REMARK    6  A    between atoms: _19  and  _20
REMARK    7  A    between atoms: _19  and  _22
REMARK    8  A    between atoms: _22  and  _23
REMARK    9  A    between atoms: _28  and  _29
REMARK   10  A    between atoms: _31  and  _33
REMARK   11  A    between atoms: _33  and  _34
REMARK   12  A    between atoms: _33  and  _36
REMARK   13  A    between atoms: _36  and  _37
REMARK   14  A    between atoms: _40  and  _41
REMARK   15  A    between atoms: _46  and  _48
REMARK   16  A    between atoms: _48  and  _49
REMARK   17  A    between atoms: _48  and  _51
REMARK   18  A    between atoms: _51  and  _52
REMARK   19  A    between atoms: _57  and  _59
REMARK   20  A    between atoms: _59  and  _60
REMARK   21  A    between atoms: _59  and  _62
REMARK   22  A    between atoms: _62  and  _63
REMARK   23  A    between atoms: _68  and  _70
REMARK   24  A    between atoms: _70  and  _71
REMARK   25  A    between atoms: _74  and  _76
REMARK   26  A    between atoms: _76  and  _77
REMARK   27  A    between atoms: _76  and  _79
REMARK   28  A    between atoms: _79  and  _80
REMARK   29  A    between atoms: _85  and  _87
REMARK   30  A    between atoms: _87  and  _88
REMARK   31  A    between atoms: _87  and  _90
REMARK   32  A    between atoms: _90  and  _91
REMARK   33  A    between atoms: _94  and  _96
REMARK   34  A    between atoms: _96  and  _97
REMARK   35  A    between atoms: _96  and  _99
REMARK   36  A    between atoms: _99  and  _100
REMARK   37  A    between atoms: _100  and  _101
REMARK   38  A    between atoms: _106  and  _108
REMARK   39  A    between atoms: _108  and  _109
REMARK   40  A    between atoms: _108  and  _111
REMARK   41  A    between atoms: _111  and  _112
REMARK   42  A    between atoms: _118  and  _120
REMARK   43  A    between atoms: _131  and  _134
REMARK   44  A    between atoms: _134  and  _135
REMARK   45  A    between atoms: _143  and  _144
REMARK   46  A    between atoms: _152  and  _154
REMARK   47  A    between atoms: _154  and  _155
REMARK   48  A    between atoms: _154  and  _157
REMARK   49  A    between atoms: _157  and  _158
REMARK   50  A    between atoms: _158  and  _159
REMARK   51  A    between atoms: _162  and  _164
REMARK   52  A    between atoms: _164  and  _165
REMARK   53  A    between atoms: _164  and  _167
REMARK   54  A    between atoms: _167  and  _168
REMARK   55  A    between atoms: _173  and  _175
REMARK   56  A    between atoms: _175  and  _176
REMARK   57  A    between atoms: _175  and  _178
REMARK   58  A    between atoms: _178  and  _179
REMARK   59  A    between atoms: _179  and  _180
REMARK   60  A    between atoms: _183  and  _185
REMARK   61  A    between atoms: _185  and  _186
REMARK   62  A    between atoms: _185  and  _188
REMARK   63  A    between atoms: _188  and  _189
REMARK   64  A    between atoms: _192  and  _194
REMARK   65  A    between atoms: _194  and  _195
REMARK   66  A    between atoms: _194  and  _197
REMARK   67  A    between atoms: _197  and  _198
REMARK   68  A    between atoms: _199  and  ZN_409
REMARK   69  A    between atoms: _203  and  _205
REMARK   70  A    between atoms: _205  and  _206
REMARK   71  A    between atoms: _205  and  _208
REMARK   72  A    between atoms: _208  and  _209
REMARK   73  A    between atoms: _212  and  _214
REMARK   74  A    between atoms: _214  and  _215
REMARK   75  A    between atoms: _214  and  _217
REMARK   76  A    between atoms: _220  and  _222
REMARK   77  A    between atoms: _222  and  _223
REMARK   78  A    between atoms: _222  and  _225
REMARK   79  A    between atoms: _225  and  _226
REMARK   80  A    between atoms: _231  and  _233
REMARK   81  A    between atoms: _233  and  _234
REMARK   82  A    between atoms: _233  and  _236
REMARK   83  A    between atoms: _236  and  _237
REMARK   84  A    between atoms: _243  and  _245
REMARK   85  A    between atoms: _245  and  _246
REMARK   86  A    between atoms: _245  and  _248
REMARK   87  A    between atoms: _251  and  _253
REMARK   88  A    between atoms: _253  and  _254
REMARK   89  A    between atoms: _253  and  _256
REMARK   90  A    between atoms: _256  and  _257
REMARK   91  A    between atoms: _260  and  _262
REMARK   92  A    between atoms: _262  and  _263
REMARK   93  A    between atoms: _266  and  _268
REMARK   94  A    between atoms: _268  and  _269
REMARK   95  A    between atoms: _268  and  _271
REMARK   96  A    between atoms: _274  and  _276
REMARK   97  A    between atoms: _276  and  _277
REMARK   98  A    between atoms: _276  and  _279
REMARK   99  A    between atoms: _279  and  _280
REMARK  100  A    between atoms: _283  and  _285
REMARK  101  A    between atoms: _285  and  _286
REMARK  102  A    between atoms: _285  and  _288
REMARK  103  A    between atoms: _288  and  _289
REMARK  104  A    between atoms: _291  and  _293
REMARK  105  A    between atoms: _293  and  _294
REMARK  106  A    between atoms: _293  and  _296
REMARK  107  A    between atoms: _296  and  _297
REMARK  108  A    between atoms: _300  and  _302
REMARK  109  A    between atoms: _302  and  _303
REMARK  110  A    between atoms: _302  and  _305
REMARK  111  A    between atoms: _305  and  _306
REMARK  112  A    between atoms: _309  and  _311
REMARK  113  A    between atoms: _311  and  _312
REMARK  114  A    between atoms: _311  and  _314
REMARK  115  A    between atoms: _314  and  _315
REMARK  116  A    between atoms: _319  and  _320
REMARK  117  A    between atoms: _326  and  _327
REMARK  118  A    between atoms: _332  and  _334
REMARK  119  A    between atoms: _334  and  _335
REMARK  120  A    between atoms: _334  and  _337
REMARK  121  A    between atoms: _337  and  _338
REMARK  122  A    between atoms: _341  and  _343
REMARK  123  A    between atoms: _343  and  _344
REMARK  124  A    between atoms: _343  and  _346
REMARK  125  A    between atoms: _346  and  _347
REMARK  126  A    between atoms: _350  and  _352
REMARK  127  A    between atoms: _352  and  _353
REMARK  128  A    between atoms: _352  and  _355
REMARK  129  A    between atoms: _357  and  _359
REMARK  130  A    between atoms: _359  and  _360
REMARK  131  A    between atoms: _359  and  _362
REMARK  132  A    between atoms: _365  and  _367
REMARK  133  A    between atoms: _367  and  _368
REMARK  134  A    between atoms: _367  and  _370
REMARK  135  A    between atoms: _370  and  _371
REMARK  136  A    between atoms: _381  and  _383
REMARK  137  A    between atoms: _383  and  _384
REMARK  138  A    between atoms: _383  and  _386
REMARK  139  A    between atoms: _386  and  _387
REMARK  140  A    between atoms: _392  and  _394
REMARK  141  A    between atoms: _394  and  _395
REMARK  142  A    between atoms: _394  and  _397
REMARK  143  A    between atoms: _397  and  _398
REMARK  144  A    between atoms: _398  and  _399
REMARK  145  A    between atoms: _399  and  _400
REMARK                            x       y       z     vdW  Elec       q    Type
REMARK                         _______ _______ _______ _____ _____    ______ ____
ROOT
ATOM      1  C   CYS A   1      15.293   9.515  23.948  0.00  0.00    +0.239 C 
ATOM      2  N   VAL A   2      15.076   8.202  24.170  0.00  0.00    -0.298 N 
ATOM      3  H   VAL A   2      15.847   7.663  24.613  0.00  0.00    +0.150 HD
ATOM      4  O   CYS A   1      14.241  10.167  23.770  0.00  0.00    -0.274 OA
ENDROOT
BRANCH   1   5
ATOM      5  CA  CYS A   1      16.690  10.140  23.973  0.00  0.00    +0.156 C 
BRANCH   5   6
ATOM      6  N   CYS A   1      17.678   9.052  24.122  0.00  0.00    -0.237 NA
ATOM      7  H   CYS A   1      17.645   8.250  23.460  0.00  0.00    +0.142 HD
ENDBRANCH   5   6
BRANCH   5   8
ATOM      8  CB  CYS A   1      17.253  11.010  22.827  0.00  0.00    +0.095 C 
ATOM      9  SG  CYS A   1      18.834  11.946  22.880  0.00  0.00    -0.080 S 
ENDBRANCH   5   8
ENDBRANCH   1   5
BRANCH   2  10
ATOM     10  CA  VAL A   2      13.853   7.469  23.844  0.00  0.00    +0.137 C 
BRANCH  10  11
ATOM     11  CB  VAL A   2      14.109   6.225  22.941  0.00  0.00    +0.026 C 
ATOM     12  CG2 VAL A   2      12.821   5.480  22.631  0.00  0.00    +0.002 C 
ATOM     13  CG1 VAL A   2      14.860   6.600  21.666  0.00  0.00    +0.002 C 
ENDBRANCH  10  11
BRANCH  10  14
ATOM     14  C   VAL A   2      13.093   6.915  25.048  0.00  0.00    +0.227 C 
ATOM     15  O   VAL A   2      13.671   6.274  25.912  0.00  0.00    -0.286 OA
ENDBRANCH  10  14
ENDBRANCH   2  10
TORSDOF 6
REMARK  Name = ../refined-set-2016/1zge/1zge_pocket.pdb
REMARK  145 active torsions:
REMARK  status: ('A' for Active; 'I' for Inactive)
REMARK    1  A    between atoms: _1  and  _3
REMARK    2  A    between atoms: _3  and  _4
REMARK    3  A    between atoms: _3  and  _6
REMARK    4  A    between atoms: _6  and  _7
REMARK    5  A    between atoms: _17  and  _19
REMARK    6  A    between atoms: _19  and  _20
REMARK    7  A    between atoms: _19  and  _22
REMARK    8  A    between atoms: _22  and  _23
REMARK    9  A    between atoms: _28  and  _29
REMARK   10  A    between atoms: _31  and  _33
REMARK   11  A    between atoms: _33  and  _34
REMARK   12  A    between atoms: _33  and  _36
REMARK   13  A    between atoms: _36  and  _37
REMARK   14  A    between atoms: _40  and  _41
REMARK   15  A    between atoms: _46  and  _48
REMARK   16  A    between atoms: _48  and  _49
REMARK   17  A    between atoms: _48  and  _51
REMARK   18  A    between atoms: _51  and  _52
REMARK   19  A    between atoms: _57  and  _59
REMARK   20  A    between atoms: _59  and  _60
REMARK   21  A    between atoms: _59  and  _62
REMARK   22  A    between atoms: _62  and  _63
REMARK   23  A    between atoms: _68  and  _70
REMARK   24  A    between atoms: _70  and  _71
REMARK   25  A    between atoms: _74  and  _76
REMARK   26  A    between atoms: _76  and  _77
REMARK   27  A    between atoms: _76  and  _79
REMARK   28  A    between atoms: _79  and  _80
REMARK   29  A    between atoms: _85  and  _87
REMARK   30  A    between atoms: _87  and  _88
REMARK   31  A    between atoms: _87  and  _90
REMARK   32  A    between atoms: _90  and  _91
REMARK   33  A    between atoms: _94  and  _96
REMARK   34  A    between atoms: _96  and  _97
REMARK   35  A    between atoms: _96  and  _99
REMARK   36  A    between atoms: _99  and  _100
REMARK   37  A    between atoms: _100  and  _101
REMARK   38  A    between atoms: _106  and  _108
REMARK   39  A    between atoms: _108  and  _109
REMARK   40  A    between atoms: _108  and  _111
REMARK   41  A    between atoms: _111  and  _112
REMARK   42  A    between atoms: _118  and  _120
REMARK   43  A    between atoms: _131  and  _134
REMARK   44  A    between atoms: _134  and  _135
REMARK   45  A    between atoms: _143  and  _144
REMARK   46  A    between atoms: _152  and  _154
REMARK   47  A    between atoms: _154  and  _155
REMARK   48  A    between atoms: _154  and  _157
REMARK   49  A    between atoms: _157  and  _158
REMARK   50  A    between atoms: _158  and  _159
REMARK   51  A    between atoms: _162  and  _164
REMARK   52  A    between atoms: _164  and  _165
REMARK   53  A    between atoms: _164  and  _167
REMARK   54  A    between atoms: _167  and  _168
REMARK   55  A    between atoms: _173  and  _175
REMARK   56  A    between atoms: _175  and  _176
REMARK   57  A    between atoms: _175  and  _178
REMARK   58  A    between atoms: _178  and  _179
REMARK   59  A    between atoms: _179  and  _180
REMARK   60  A    between atoms: _183  and  _185
REMARK   61  A    between atoms: _185  and  _186
REMARK   62  A    between atoms: _185  and  _188
REMARK   63  A    between atoms: _188  and  _189
REMARK   64  A    between atoms: _192  and  _194
REMARK   65  A    between atoms: _194  and  _195
REMARK   66  A    between atoms: _194  and  _197
REMARK   67  A    between atoms: _197  and  _198
REMARK   68  A    between atoms: _199  and  ZN_409
REMARK   69  A    between atoms: _203  and  _205
REMARK   70  A    between atoms: _205  and  _206
REMARK   71  A    between atoms: _205  and  _208
REMARK   72  A    between atoms: _208  and  _209
REMARK   73  A    between atoms: _212  and  _214
REMARK   74  A    between atoms: _214  and  _215
REMARK   75  A    between atoms: _214  and  _217
REMARK   76  A    between atoms: _220  and  _222
REMARK   77  A    between atoms: _222  and  _223
REMARK   78  A    between atoms: _222  and  _225
REMARK   79  A    between atoms: _225  and  _226
REMARK   80  A    between atoms: _231  and  _233
REMARK   81  A    between atoms: _233  and  _234
REMARK   82  A    between atoms: _233  and  _236
REMARK   83  A    between atoms: _236  and  _237
REMARK   84  A    between atoms: _243  and  _245
REMARK   85  A    between atoms: _245  and  _246
REMARK   86  A    between atoms: _245  and  _248
REMARK   87  A    between atoms: _251  and  _253
REMARK   88  A    between atoms: _253  and  _254
REMARK   89  A    between atoms: _253  and  _256
REMARK   90  A    between atoms: _256  and  _257
REMARK   91  A    between atoms: _260  and  _262
REMARK   92  A    between atoms: _262  and  _263
REMARK   93  A    between atoms: _266  and  _268
REMARK   94  A    between atoms: _268  and  _269
REMARK   95  A    between atoms: _268  and  _271
REMARK   96  A    between atoms: _274  and  _276
REMARK   97  A    between atoms: _276  and  _277
REMARK   98  A    between atoms: _276  and  _279
REMARK   99  A    between atoms: _279  and  _280
REMARK  100  A    between atoms: _283  and  _285
REMARK  101  A    between atoms: _285  and  _286
REMARK  102  A    between atoms: _285  and  _288
REMARK  103  A    between atoms: _288  and  _289
REMARK  104  A    between atoms: _291  and  _293
REMARK  105  A    between atoms: _293  and  _294
REMARK  106  A    between atoms: _293  and  _296
REMARK  107  A    between atoms: _296  and  _297
REMARK  108  A    between atoms: _300  and  _302
REMARK  109  A    between atoms: _302  and  _303
REMARK  110  A    between atoms: _302  and  _305
REMARK  111  A    between atoms: _305  and  _306
REMARK  112  A    between atoms: _309  and  _311
REMARK  113  A    between atoms: _311  and  _312
REMARK  114  A    between atoms: _311  and  _314
REMARK  115  A    between atoms: _314  and  _315
REMARK  116  A    between atoms: _319  and  _320
REMARK  117  A    between atoms: _326  and  _327
REMARK  118  A    between atoms: _332  and  _334
REMARK  119  A    between atoms: _334  and  _335
REMARK  120  A    between atoms: _334  and  _337
REMARK  121  A    between atoms: _337  and  _338
REMARK  122  A    between atoms: _341  and  _343
REMARK  123  A    between atoms: _343  and  _344
REMARK  124  A    between atoms: _343  and  _346
REMARK  125  A    between atoms: _346  and  _347
REMARK  126  A    between atoms: _350  and  _352
REMARK  127  A    between atoms: _352  and  _353
REMARK  128  A    between atoms: _352  and  _355
REMARK  129  A    between atoms: _357  and  _359
REMARK  130  A    between atoms: _359  and  _360
REMARK  131  A    between atoms: _359  and  _362
REMARK  132  A    between atoms: _365  and  _367
REMARK  133  A    between atoms: _367  and  _368
REMARK  134  A    between atoms: _367  and  _370
REMARK  135  A    between atoms: _370  and  _371
REMARK  136  A    between atoms: _381  and  _383
REMARK  137  A    between atoms: _383  and  _384
REMARK  138  A    between atoms: _383  and  _386
REMARK  139  A    between atoms: _386  and  _387
REMARK  140  A    between atoms: _392  and  _394
REMARK  141  A    between atoms: _394  and  _395
REMARK  142  A    between atoms: _394  and  _397
REMARK  143  A    between atoms: _397  and  _398
REMARK  144  A    between atoms: _398  and  _399
REMARK  145  A    between atoms: _399  and  _400
REMARK                            x       y       z     vdW  Elec       q    Type
REMARK                         _______ _______ _______ _____ _____    ______ ____
ROOT
ATOM      1  CG  TRP A   1      12.345   1.948  24.047  0.00  0.00    -0.002 A 
ATOM      2  CD1 TRP A   1      13.558   2.544  24.223  0.00  0.00    +0.068 A 
ATOM      3  NE1 TRP A   1      14.279   2.507  23.058  0.00  0.00    -0.352 N 
ATOM      4  HE1 TRP A   1      15.235   2.896  22.927  0.00  0.00    +0.166 HD
ATOM      5  CE2 TRP A   1      13.538   1.874  22.091  0.00  0.00    +0.056 A 
ATOM      6  CZ2 TRP A   1      13.815   1.588  20.762  0.00  0.00    +0.017 A 
ATOM      7  CH2 TRP A   1      12.883   0.939  20.030  0.00  0.00    +0.001 A 
ATOM      8  CZ3 TRP A   1      11.657   0.567  20.593  0.00  0.00    +0.000 A 
ATOM      9  CE3 TRP A   1      11.365   0.844  21.908  0.00  0.00    +0.001 A 
ATOM     10  CD2 TRP A   1      12.316   1.512  22.681  0.00  0.00    +0.013 A 
ENDROOT
BRANCH   1  11
ATOM     11  CB  TRP A   1      11.232   1.768  25.042  0.00  0.00    +0.053 C 
BRANCH  11  12
ATOM     12  CA  TRP A   1      10.214   2.916  24.853  0.00  0.00    +0.137 C 
BRANCH  12  13
ATOM     13  N   TRP A   1      10.649   4.136  25.537  0.00  0.00    -0.239 NA
ATOM     14  H   TRP A   1      11.238   4.065  26.391  0.00  0.00    +0.142 HD
ENDBRANCH  12  13
BRANCH  12  15
ATOM     15  C   TRP A   1       8.853   2.473  25.367  0.00  0.00    +0.224 C 
ATOM     16  O   TRP A   1       8.680   2.422  26.593  0.00  0.00    -0.287 OA
ENDBRANCH  12  15
ENDBRANCH  11  12
ENDBRANCH   1  11
TORSDOF 4
REMARK  Name = ../refined-set-2016/1zge/1zge_pocket.pdb
REMARK  145 active torsions:
REMARK  status: ('A' for Active; 'I' for Inactive)
REMARK    1  A    between atoms: _1  and  _3
REMARK    2  A    between atoms: _3  and  _4
REMARK    3  A    between atoms: _3  and  _6
REMARK    4  A    between atoms: _6  and  _7
REMARK    5  A    between atoms: _17  and  _19
REMARK    6  A    between atoms: _19  and  _20
REMARK    7  A    between atoms: _19  and  _22
REMARK    8  A    between atoms: _22  and  _23
REMARK    9  A    between atoms: _28  and  _29
REMARK   10  A    between atoms: _31  and  _33
REMARK   11  A    between atoms: _33  and  _34
REMARK   12  A    between atoms: _33  and  _36
REMARK   13  A    between atoms: _36  and  _37
REMARK   14  A    between atoms: _40  and  _41
REMARK   15  A    between atoms: _46  and  _48
REMARK   16  A    between atoms: _48  and  _49
REMARK   17  A    between atoms: _48  and  _51
REMARK   18  A    between atoms: _51  and  _52
REMARK   19  A    between atoms: _57  and  _59
REMARK   20  A    between atoms: _59  and  _60
REMARK   21  A    between atoms: _59  and  _62
REMARK   22  A    between atoms: _62  and  _63
REMARK   23  A    between atoms: _68  and  _70
REMARK   24  A    between atoms: _70  and  _71
REMARK   25  A    between atoms: _74  and  _76
REMARK   26  A    between atoms: _76  and  _77
REMARK   27  A    between atoms: _76  and  _79
REMARK   28  A    between atoms: _79  and  _80
REMARK   29  A    between atoms: _85  and  _87
REMARK   30  A    between atoms: _87  and  _88
REMARK   31  A    between atoms: _87  and  _90
REMARK   32  A    between atoms: _90  and  _91
REMARK   33  A    between atoms: _94  and  _96
REMARK   34  A    between atoms: _96  and  _97
REMARK   35  A    between atoms: _96  and  _99
REMARK   36  A    between atoms: _99  and  _100
REMARK   37  A    between atoms: _100  and  _101
REMARK   38  A    between atoms: _106  and  _108
REMARK   39  A    between atoms: _108  and  _109
REMARK   40  A    between atoms: _108  and  _111
REMARK   41  A    between atoms: _111  and  _112
REMARK   42  A    between atoms: _118  and  _120
REMARK   43  A    between atoms: _131  and  _134
REMARK   44  A    between atoms: _134  and  _135
REMARK   45  A    between atoms: _143  and  _144
REMARK   46  A    between atoms: _152  and  _154
REMARK   47  A    between atoms: _154  and  _155
REMARK   48  A    between atoms: _154  and  _157
REMARK   49  A    between atoms: _157  and  _158
REMARK   50  A    between atoms: _158  and  _159
REMARK   51  A    between atoms: _162  and  _164
REMARK   52  A    between atoms: _164  and  _165
REMARK   53  A    between atoms: _164  and  _167
REMARK   54  A    between atoms: _167  and  _168
REMARK   55  A    between atoms: _173  and  _175
REMARK   56  A    between atoms: _175  and  _176
REMARK   57  A    between atoms: _175  and  _178
REMARK   58  A    between atoms: _178  and  _179
REMARK   59  A    between atoms: _179  and  _180
REMARK   60  A    between atoms: _183  and  _185
REMARK   61  A    between atoms: _185  and  _186
REMARK   62  A    between atoms: _185  and  _188
REMARK   63  A    between atoms: _188  and  _189
REMARK   64  A    between atoms: _192  and  _194
REMARK   65  A    between atoms: _194  and  _195
REMARK   66  A    between atoms: _194  and  _197
REMARK   67  A    between atoms: _197  and  _198
REMARK   68  A    between atoms: _199  and  ZN_409
REMARK   69  A    between atoms: _203  and  _205
REMARK   70  A    between atoms: _205  and  _206
REMARK   71  A    between atoms: _205  and  _208
REMARK   72  A    between atoms: _208  and  _209
REMARK   73  A    between atoms: _212  and  _214
REMARK   74  A    between atoms: _214  and  _215
REMARK   75  A    between atoms: _214  and  _217
REMARK   76  A    between atoms: _220  and  _222
REMARK   77  A    between atoms: _222  and  _223
REMARK   78  A    between atoms: _222  and  _225
REMARK   79  A    between atoms: _225  and  _226
REMARK   80  A    between atoms: _231  and  _233
REMARK   81  A    between atoms: _233  and  _234
REMARK   82  A    between atoms: _233  and  _236
REMARK   83  A    between atoms: _236  and  _237
REMARK   84  A    between atoms: _243  and  _245
REMARK   85  A    between atoms: _245  and  _246
REMARK   86  A    between atoms: _245  and  _248
REMARK   87  A    between atoms: _251  and  _253
REMARK   88  A    between atoms: _253  and  _254
REMARK   89  A    between atoms: _253  and  _256
REMARK   90  A    between atoms: _256  and  _257
REMARK   91  A    between atoms: _260  and  _262
REMARK   92  A    between atoms: _262  and  _263
REMARK   93  A    between atoms: _266  and  _268
REMARK   94  A    between atoms: _268  and  _269
REMARK   95  A    between atoms: _268  and  _271
REMARK   96  A    between atoms: _274  and  _276
REMARK   97  A    between atoms: _276  and  _277
REMARK   98  A    between atoms: _276  and  _279
REMARK   99  A    between atoms: _279  and  _280
REMARK  100  A    between atoms: _283  and  _285
REMARK  101  A    between atoms: _285  and  _286
REMARK  102  A    between atoms: _285  and  _288
REMARK  103  A    between atoms: _288  and  _289
REMARK  104  A    between atoms: _291  and  _293
REMARK  105  A    between atoms: _293  and  _294
REMARK  106  A    between atoms: _293  and  _296
REMARK  107  A    between atoms: _296  and  _297
REMARK  108  A    between atoms: _300  and  _302
REMARK  109  A    between atoms: _302  and  _303
REMARK  110  A    between atoms: _302  and  _305
REMARK  111  A    between atoms: _305  and  _306
REMARK  112  A    between atoms: _309  and  _311
REMARK  113  A    between atoms: _311  and  _312
REMARK  114  A    between atoms: _311  and  _314
REMARK  115  A    between atoms: _314  and  _315
REMARK  116  A    between atoms: _319  and  _320
REMARK  117  A    between atoms: _326  and  _327
REMARK  118  A    between atoms: _332  and  _334
REMARK  119  A    between atoms: _334  and  _335
REMARK  120  A    between atoms: _334  and  _337
REMARK  121  A    between atoms: _337  and  _338
REMARK  122  A    between atoms: _341  and  _343
REMARK  123  A    between atoms: _343  and  _344
REMARK  124  A    between atoms: _343  and  _346
REMARK  125  A    between atoms: _346  and  _347
REMARK  126  A    between atoms: _350  and  _352
REMARK  127  A    between atoms: _352  and  _353
REMARK  128  A    between atoms: _352  and  _355
REMARK  129  A    between atoms: _357  and  _359
REMARK  130  A    between atoms: _359  and  _360
REMARK  131  A    between atoms: _359  and  _362
REMARK  132  A    between atoms: _365  and  _367
REMARK  133  A    between atoms: _367  and  _368
REMARK  134  A    between atoms: _367  and  _370
REMARK  135  A    between atoms: _370  and  _371
REMARK  136  A    between atoms: _381  and  _383
REMARK  137  A    between atoms: _383  and  _384
REMARK  138  A    between atoms: _383  and  _386
REMARK  139  A    between atoms: _386  and  _387
REMARK  140  A    between atoms: _392  and  _394
REMARK  141  A    between atoms: _394  and  _395
REMARK  142  A    between atoms: _394  and  _397
REMARK  143  A    between atoms: _397  and  _398
REMARK  144  A    between atoms: _398  and  _399
REMARK  145  A    between atoms: _399  and  _400
REMARK                            x       y       z     vdW  Elec       q    Type
REMARK                         _______ _______ _______ _____ _____    ______ ____
ROOT
ATOM      1  CB  ASN A   1      19.119  -5.626  10.485  0.00  0.00    +0.110 C 
ENDROOT
BRANCH   1   2
ATOM      2  CG  ASN A   1      17.639  -5.767  10.288  0.00  0.00    +0.221 C 
ATOM      3  OD1 ASN A   1      16.986  -6.626  10.883  0.00  0.00    -0.275 OA
ATOM      4  ND2 ASN A   1      17.070  -4.906   9.441  0.00  0.00    -0.329 N 
ATOM      5 HD21 ASN A   1      16.046  -4.948   9.267  0.00  0.00    +0.145 HD
ATOM      6 HD22 ASN A   1      17.651  -4.193   8.955  0.00  0.00    +0.145 HD
ENDBRANCH   1   2
BRANCH   1   7
ATOM      7  CA  ASN A   1      19.672  -6.504  11.611  0.00  0.00    +0.142 C 
BRANCH   7   8
ATOM      8  N   ASN A   1      19.402  -7.907  11.367  0.00  0.00    -0.239 NA
ATOM      9  H   ASN A   1      18.506  -8.157  10.901  0.00  0.00    +0.142 HD
ENDBRANCH   7   8
BRANCH   7  10
ATOM     10  C   ASN A   1      19.111  -6.033  12.953  0.00  0.00    +0.225 C 
ATOM     11  O   ASN A   1      18.472  -4.975  12.988  0.00  0.00    -0.287 OA
ENDBRANCH   7  10
ENDBRANCH   1   7
TORSDOF 4
REMARK  Name = ../refined-set-2016/1zge/1zge_pocket.pdb
REMARK  145 active torsions:
REMARK  status: ('A' for Active; 'I' for Inactive)
REMARK    1  A    between atoms: _1  and  _3
REMARK    2  A    between atoms: _3  and  _4
REMARK    3  A    between atoms: _3  and  _6
REMARK    4  A    between atoms: _6  and  _7
REMARK    5  A    between atoms: _17  and  _19
REMARK    6  A    between atoms: _19  and  _20
REMARK    7  A    between atoms: _19  and  _22
REMARK    8  A    between atoms: _22  and  _23
REMARK    9  A    between atoms: _28  and  _29
REMARK   10  A    between atoms: _31  and  _33
REMARK   11  A    between atoms: _33  and  _34
REMARK   12  A    between atoms: _33  and  _36
REMARK   13  A    between atoms: _36  and  _37
REMARK   14  A    between atoms: _40  and  _41
REMARK   15  A    between atoms: _46  and  _48
REMARK   16  A    between atoms: _48  and  _49
REMARK   17  A    between atoms: _48  and  _51
REMARK   18  A    between atoms: _51  and  _52
REMARK   19  A    between atoms: _57  and  _59
REMARK   20  A    between atoms: _59  and  _60
REMARK   21  A    between atoms: _59  and  _62
REMARK   22  A    between atoms: _62  and  _63
REMARK   23  A    between atoms: _68  and  _70
REMARK   24  A    between atoms: _70  and  _71
REMARK   25  A    between atoms: _74  and  _76
REMARK   26  A    between atoms: _76  and  _77
REMARK   27  A    between atoms: _76  and  _79
REMARK   28  A    between atoms: _79  and  _80
REMARK   29  A    between atoms: _85  and  _87
REMARK   30  A    between atoms: _87  and  _88
REMARK   31  A    between atoms: _87  and  _90
REMARK   32  A    between atoms: _90  and  _91
REMARK   33  A    between atoms: _94  and  _96
REMARK   34  A    between atoms: _96  and  _97
REMARK   35  A    between atoms: _96  and  _99
REMARK   36  A    between atoms: _99  and  _100
REMARK   37  A    between atoms: _100  and  _101
REMARK   38  A    between atoms: _106  and  _108
REMARK   39  A    between atoms: _108  and  _109
REMARK   40  A    between atoms: _108  and  _111
REMARK   41  A    between atoms: _111  and  _112
REMARK   42  A    between atoms: _118  and  _120
REMARK   43  A    between atoms: _131  and  _134
REMARK   44  A    between atoms: _134  and  _135
REMARK   45  A    between atoms: _143  and  _144
REMARK   46  A    between atoms: _152  and  _154
REMARK   47  A    between atoms: _154  and  _155
REMARK   48  A    between atoms: _154  and  _157
REMARK   49  A    between atoms: _157  and  _158
REMARK   50  A    between atoms: _158  and  _159
REMARK   51  A    between atoms: _162  and  _164
REMARK   52  A    between atoms: _164  and  _165
REMARK   53  A    between atoms: _164  and  _167
REMARK   54  A    between atoms: _167  and  _168
REMARK   55  A    between atoms: _173  and  _175
REMARK   56  A    between atoms: _175  and  _176
REMARK   57  A    between atoms: _175  and  _178
REMARK   58  A    between atoms: _178  and  _179
REMARK   59  A    between atoms: _179  and  _180
REMARK   60  A    between atoms: _183  and  _185
REMARK   61  A    between atoms: _185  and  _186
REMARK   62  A    between atoms: _185  and  _188
REMARK   63  A    between atoms: _188  and  _189
REMARK   64  A    between atoms: _192  and  _194
REMARK   65  A    between atoms: _194  and  _195
REMARK   66  A    between atoms: _194  and  _197
REMARK   67  A    between atoms: _197  and  _198
REMARK   68  A    between atoms: _199  and  ZN_409
REMARK   69  A    between atoms: _203  and  _205
REMARK   70  A    between atoms: _205  and  _206
REMARK   71  A    between atoms: _205  and  _208
REMARK   72  A    between atoms: _208  and  _209
REMARK   73  A    between atoms: _212  and  _214
REMARK   74  A    between atoms: _214  and  _215
REMARK   75  A    between atoms: _214  and  _217
REMARK   76  A    between atoms: _220  and  _222
REMARK   77  A    between atoms: _222  and  _223
REMARK   78  A    between atoms: _222  and  _225
REMARK   79  A    between atoms: _225  and  _226
REMARK   80  A    between atoms: _231  and  _233
REMARK   81  A    between atoms: _233  and  _234
REMARK   82  A    between atoms: _233  and  _236
REMARK   83  A    between atoms: _236  and  _237
REMARK   84  A    between atoms: _243  and  _245
REMARK   85  A    between atoms: _245  and  _246
REMARK   86  A    between atoms: _245  and  _248
REMARK   87  A    between atoms: _251  and  _253
REMARK   88  A    between atoms: _253  and  _254
REMARK   89  A    between atoms: _253  and  _256
REMARK   90  A    between atoms: _256  and  _257
REMARK   91  A    between atoms: _260  and  _262
REMARK   92  A    between atoms: _262  and  _263
REMARK   93  A    between atoms: _266  and  _268
REMARK   94  A    between atoms: _268  and  _269
REMARK   95  A    between atoms: _268  and  _271
REMARK   96  A    between atoms: _274  and  _276
REMARK   97  A    between atoms: _276  and  _277
REMARK   98  A    between atoms: _276  and  _279
REMARK   99  A    between atoms: _279  and  _280
REMARK  100  A    between atoms: _283  and  _285
REMARK  101  A    between atoms: _285  and  _286
REMARK  102  A    between atoms: _285  and  _288
REMARK  103  A    between atoms: _288  and  _289
REMARK  104  A    between atoms: _291  and  _293
REMARK  105  A    between atoms: _293  and  _294
REMARK  106  A    between atoms: _293  and  _296
REMARK  107  A    between atoms: _296  and  _297
REMARK  108  A    between atoms: _300  and  _302
REMARK  109  A    between atoms: _302  and  _303
REMARK  110  A    between atoms: _302  and  _305
REMARK  111  A    between atoms: _305  and  _306
REMARK  112  A    between atoms: _309  and  _311
REMARK  113  A    between atoms: _311  and  _312
REMARK  114  A    between atoms: _311  and  _314
REMARK  115  A    between atoms: _314  and  _315
REMARK  116  A    between atoms: _319  and  _320
REMARK  117  A    between atoms: _326  and  _327
REMARK  118  A    between atoms: _332  and  _334
REMARK  119  A    between atoms: _334  and  _335
REMARK  120  A    between atoms: _334  and  _337
REMARK  121  A    between atoms: _337  and  _338
REMARK  122  A    between atoms: _341  and  _343
REMARK  123  A    between atoms: _343  and  _344
REMARK  124  A    between atoms: _343  and  _346
REMARK  125  A    between atoms: _346  and  _347
REMARK  126  A    between atoms: _350  and  _352
REMARK  127  A    between atoms: _352  and  _353
REMARK  128  A    between atoms: _352  and  _355
REMARK  129  A    between atoms: _357  and  _359
REMARK  130  A    between atoms: _359  and  _360
REMARK  131  A    between atoms: _359  and  _362
REMARK  132  A    between atoms: _365  and  _367
REMARK  133  A    between atoms: _367  and  _368
REMARK  134  A    between atoms: _367  and  _370
REMARK  135  A    between atoms: _370  and  _371
REMARK  136  A    between atoms: _381  and  _383
REMARK  137  A    between atoms: _383  and  _384
REMARK  138  A    between atoms: _383  and  _386
REMARK  139  A    between atoms: _386  and  _387
REMARK  140  A    between atoms: _392  and  _394
REMARK  141  A    between atoms: _394  and  _395
REMARK  142  A    between atoms: _394  and  _397
REMARK  143  A    between atoms: _397  and  _398
REMARK  144  A    between atoms: _398  and  _399
REMARK  145  A    between atoms: _399  and  _400
REMARK                            x       y       z     vdW  Elec       q    Type
REMARK                         _______ _______ _______ _____ _____    ______ ____
ROOT
ATOM      1  NE  ARG A   1      23.355  -2.024  21.132  0.00  0.00    -0.265 N 
ATOM      2  CZ  ARG A   1      23.550  -1.020  21.975  0.00  0.00    +0.342 C 
ATOM      3  NH2 ARG A   1      22.562  -0.251  22.410  0.00  0.00    -0.292 N 
ATOM      4 HH21 ARG A   1      22.761   0.526  23.072  0.00  0.00    +0.255 HD
ATOM      5 HH22 ARG A   1      21.588  -0.425  22.090  0.00  0.00    +0.255 HD
ATOM      6  NH1 ARG A   1      24.795  -0.795  22.403  0.00  0.00    -0.292 N 
ATOM      7 HH11 ARG A   1      24.984  -0.016  23.065  0.00  0.00    +0.255 HD
ATOM      8 HH12 ARG A   1      25.575  -1.399  22.074  0.00  0.00    +0.255 HD
ATOM      9  HE  ARG A   1      24.201  -2.570  20.872  0.00  0.00    +0.259 HD
ENDROOT
BRANCH   1  10
ATOM     10  CD  ARG A   1      22.114  -2.456  20.528  0.00  0.00    +0.174 C 
BRANCH  10  11
ATOM     11  CG  ARG A   1      22.182  -3.826  19.897  0.00  0.00    +0.045 C 
BRANCH  11  12
ATOM     12  CB  ARG A   1      21.128  -3.997  18.804  0.00  0.00    +0.029 C 
BRANCH  12  13
ATOM     13  CA  ARG A   1      20.960  -5.443  18.352  0.00  0.00    +0.133 C 
BRANCH  13  14
ATOM     14  N   ARG A   1      20.016  -5.557  17.243  0.00  0.00    -0.239 NA
ATOM     15  H   ARG A   1      19.195  -4.920  17.203  0.00  0.00    +0.142 HD
ENDBRANCH  13  14
BRANCH  13  16
ATOM     16  C   ARG A   1      20.502  -6.323  19.502  0.00  0.00    +0.224 C 
ATOM     17  O   ARG A   1      19.340  -6.366  19.881  0.00  0.00    -0.287 OA
ENDBRANCH  13  16
ENDBRANCH  12  13
ENDBRANCH  11  12
ENDBRANCH  10  11
ENDBRANCH   1  10
TORSDOF 6
REMARK  Name = ../refined-set-2016/1zge/1zge_pocket.pdb
REMARK  145 active torsions:
REMARK  status: ('A' for Active; 'I' for Inactive)
REMARK    1  A    between atoms: _1  and  _3
REMARK    2  A    between atoms: _3  and  _4
REMARK    3  A    between atoms: _3  and  _6
REMARK    4  A    between atoms: _6  and  _7
REMARK    5  A    between atoms: _17  and  _19
REMARK    6  A    between atoms: _19  and  _20
REMARK    7  A    between atoms: _19  and  _22
REMARK    8  A    between atoms: _22  and  _23
REMARK    9  A    between atoms: _28  and  _29
REMARK   10  A    between atoms: _31  and  _33
REMARK   11  A    between atoms: _33  and  _34
REMARK   12  A    between atoms: _33  and  _36
REMARK   13  A    between atoms: _36  and  _37
REMARK   14  A    between atoms: _40  and  _41
REMARK   15  A    between atoms: _46  and  _48
REMARK   16  A    between atoms: _48  and  _49
REMARK   17  A    between atoms: _48  and  _51
REMARK   18  A    between atoms: _51  and  _52
REMARK   19  A    between atoms: _57  and  _59
REMARK   20  A    between atoms: _59  and  _60
REMARK   21  A    between atoms: _59  and  _62
REMARK   22  A    between atoms: _62  and  _63
REMARK   23  A    between atoms: _68  and  _70
REMARK   24  A    between atoms: _70  and  _71
REMARK   25  A    between atoms: _74  and  _76
REMARK   26  A    between atoms: _76  and  _77
REMARK   27  A    between atoms: _76  and  _79
REMARK   28  A    between atoms: _79  and  _80
REMARK   29  A    between atoms: _85  and  _87
REMARK   30  A    between atoms: _87  and  _88
REMARK   31  A    between atoms: _87  and  _90
REMARK   32  A    between atoms: _90  and  _91
REMARK   33  A    between atoms: _94  and  _96
REMARK   34  A    between atoms: _96  and  _97
REMARK   35  A    between atoms: _96  and  _99
REMARK   36  A    between atoms: _99  and  _100
REMARK   37  A    between atoms: _100  and  _101
REMARK   38  A    between atoms: _106  and  _108
REMARK   39  A    between atoms: _108  and  _109
REMARK   40  A    between atoms: _108  and  _111
REMARK   41  A    between atoms: _111  and  _112
REMARK   42  A    between atoms: _118  and  _120
REMARK   43  A    between atoms: _131  and  _134
REMARK   44  A    between atoms: _134  and  _135
REMARK   45  A    between atoms: _143  and  _144
REMARK   46  A    between atoms: _152  and  _154
REMARK   47  A    between atoms: _154  and  _155
REMARK   48  A    between atoms: _154  and  _157
REMARK   49  A    between atoms: _157  and  _158
REMARK   50  A    between atoms: _158  and  _159
REMARK   51  A    between atoms: _162  and  _164
REMARK   52  A    between atoms: _164  and  _165
REMARK   53  A    between atoms: _164  and  _167
REMARK   54  A    between atoms: _167  and  _168
REMARK   55  A    between atoms: _173  and  _175
REMARK   56  A    between atoms: _175  and  _176
REMARK   57  A    between atoms: _175  and  _178
REMARK   58  A    between atoms: _178  and  _179
REMARK   59  A    between atoms: _179  and  _180
REMARK   60  A    between atoms: _183  and  _185
REMARK   61  A    between atoms: _185  and  _186
REMARK   62  A    between atoms: _185  and  _188
REMARK   63  A    between atoms: _188  and  _189
REMARK   64  A    between atoms: _192  and  _194
REMARK   65  A    between atoms: _194  and  _195
REMARK   66  A    between atoms: _194  and  _197
REMARK   67  A    between atoms: _197  and  _198
REMARK   68  A    between atoms: _199  and  ZN_409
REMARK   69  A    between atoms: _203  and  _205
REMARK   70  A    between atoms: _205  and  _206
REMARK   71  A    between atoms: _205  and  _208
REMARK   72  A    between atoms: _208  and  _209
REMARK   73  A    between atoms: _212  and  _214
REMARK   74  A    between atoms: _214  and  _215
REMARK   75  A    between atoms: _214  and  _217
REMARK   76  A    between atoms: _220  and  _222
REMARK   77  A    between atoms: _222  and  _223
REMARK   78  A    between atoms: _222  and  _225
REMARK   79  A    between atoms: _225  and  _226
REMARK   80  A    between atoms: _231  and  _233
REMARK   81  A    between atoms: _233  and  _234
REMARK   82  A    between atoms: _233  and  _236
REMARK   83  A    between atoms: _236  and  _237
REMARK   84  A    between atoms: _243  and  _245
REMARK   85  A    between atoms: _245  and  _246
REMARK   86  A    between atoms: _245  and  _248
REMARK   87  A    between atoms: _251  and  _253
REMARK   88  A    between atoms: _253  and  _254
REMARK   89  A    between atoms: _253  and  _256
REMARK   90  A    between atoms: _256  and  _257
REMARK   91  A    between atoms: _260  and  _262
REMARK   92  A    between atoms: _262  and  _263
REMARK   93  A    between atoms: _266  and  _268
REMARK   94  A    between atoms: _268  and  _269
REMARK   95  A    between atoms: _268  and  _271
REMARK   96  A    between atoms: _274  and  _276
REMARK   97  A    between atoms: _276  and  _277
REMARK   98  A    between atoms: _276  and  _279
REMARK   99  A    between atoms: _279  and  _280
REMARK  100  A    between atoms: _283  and  _285
REMARK  101  A    between atoms: _285  and  _286
REMARK  102  A    between atoms: _285  and  _288
REMARK  103  A    between atoms: _288  and  _289
REMARK  104  A    between atoms: _291  and  _293
REMARK  105  A    between atoms: _293  and  _294
REMARK  106  A    between atoms: _293  and  _296
REMARK  107  A    between atoms: _296  and  _297
REMARK  108  A    between atoms: _300  and  _302
REMARK  109  A    between atoms: _302  and  _303
REMARK  110  A    between atoms: _302  and  _305
REMARK  111  A    between atoms: _305  and  _306
REMARK  112  A    between atoms: _309  and  _311
REMARK  113  A    between atoms: _311  and  _312
REMARK  114  A    between atoms: _311  and  _314
REMARK  115  A    between atoms: _314  and  _315
REMARK  116  A    between atoms: _319  and  _320
REMARK  117  A    between atoms: _326  and  _327
REMARK  118  A    between atoms: _332  and  _334
REMARK  119  A    between atoms: _334  and  _335
REMARK  120  A    between atoms: _334  and  _337
REMARK  121  A    between atoms: _337  and  _338
REMARK  122  A    between atoms: _341  and  _343
REMARK  123  A    between atoms: _343  and  _344
REMARK  124  A    between atoms: _343  and  _346
REMARK  125  A    between atoms: _346  and  _347
REMARK  126  A    between atoms: _350  and  _352
REMARK  127  A    between atoms: _352  and  _353
REMARK  128  A    between atoms: _352  and  _355
REMARK  129  A    between atoms: _357  and  _359
REMARK  130  A    between atoms: _359  and  _360
REMARK  131  A    between atoms: _359  and  _362
REMARK  132  A    between atoms: _365  and  _367
REMARK  133  A    between atoms: _367  and  _368
REMARK  134  A    between atoms: _367  and  _370
REMARK  135  A    between atoms: _370  and  _371
REMARK  136  A    between atoms: _381  and  _383
REMARK  137  A    between atoms: _383  and  _384
REMARK  138  A    between atoms: _383  and  _386
REMARK  139  A    between atoms: _386  and  _387
REMARK  140  A    between atoms: _392  and  _394
REMARK  141  A    between atoms: _394  and  _395
REMARK  142  A    between atoms: _394  and  _397
REMARK  143  A    between atoms: _397  and  _398
REMARK  144  A    between atoms: _398  and  _399
REMARK  145  A    between atoms: _399  and  _400
REMARK                            x       y       z     vdW  Elec       q    Type
REMARK                         _______ _______ _______ _____ _____    ______ ____
ROOT
ATOM      1  O   HOH     1      19.985  -2.413  15.828  0.00  0.00    +0.000 OA
ENDROOT
TORSDOF 0
REMARK  Name = ../refined-set-2016/1zge/1zge_pocket.pdb
REMARK  145 active torsions:
REMARK  status: ('A' for Active; 'I' for Inactive)
REMARK    1  A    between atoms: _1  and  _3
REMARK    2  A    between atoms: _3  and  _4
REMARK    3  A    between atoms: _3  and  _6
REMARK    4  A    between atoms: _6  and  _7
REMARK    5  A    between atoms: _17  and  _19
REMARK    6  A    between atoms: _19  and  _20
REMARK    7  A    between atoms: _19  and  _22
REMARK    8  A    between atoms: _22  and  _23
REMARK    9  A    between atoms: _28  and  _29
REMARK   10  A    between atoms: _31  and  _33
REMARK   11  A    between atoms: _33  and  _34
REMARK   12  A    between atoms: _33  and  _36
REMARK   13  A    between atoms: _36  and  _37
REMARK   14  A    between atoms: _40  and  _41
REMARK   15  A    between atoms: _46  and  _48
REMARK   16  A    between atoms: _48  and  _49
REMARK   17  A    between atoms: _48  and  _51
REMARK   18  A    between atoms: _51  and  _52
REMARK   19  A    between atoms: _57  and  _59
REMARK   20  A    between atoms: _59  and  _60
REMARK   21  A    between atoms: _59  and  _62
REMARK   22  A    between atoms: _62  and  _63
REMARK   23  A    between atoms: _68  and  _70
REMARK   24  A    between atoms: _70  and  _71
REMARK   25  A    between atoms: _74  and  _76
REMARK   26  A    between atoms: _76  and  _77
REMARK   27  A    between atoms: _76  and  _79
REMARK   28  A    between atoms: _79  and  _80
REMARK   29  A    between atoms: _85  and  _87
REMARK   30  A    between atoms: _87  and  _88
REMARK   31  A    between atoms: _87  and  _90
REMARK   32  A    between atoms: _90  and  _91
REMARK   33  A    between atoms: _94  and  _96
REMARK   34  A    between atoms: _96  and  _97
REMARK   35  A    between atoms: _96  and  _99
REMARK   36  A    between atoms: _99  and  _100
REMARK   37  A    between atoms: _100  and  _101
REMARK   38  A    between atoms: _106  and  _108
REMARK   39  A    between atoms: _108  and  _109
REMARK   40  A    between atoms: _108  and  _111
REMARK   41  A    between atoms: _111  and  _112
REMARK   42  A    between atoms: _118  and  _120
REMARK   43  A    between atoms: _131  and  _134
REMARK   44  A    between atoms: _134  and  _135
REMARK   45  A    between atoms: _143  and  _144
REMARK   46  A    between atoms: _152  and  _154
REMARK   47  A    between atoms: _154  and  _155
REMARK   48  A    between atoms: _154  and  _157
REMARK   49  A    between atoms: _157  and  _158
REMARK   50  A    between atoms: _158  and  _159
REMARK   51  A    between atoms: _162  and  _164
REMARK   52  A    between atoms: _164  and  _165
REMARK   53  A    between atoms: _164  and  _167
REMARK   54  A    between atoms: _167  and  _168
REMARK   55  A    between atoms: _173  and  _175
REMARK   56  A    between atoms: _175  and  _176
REMARK   57  A    between atoms: _175  and  _178
REMARK   58  A    between atoms: _178  and  _179
REMARK   59  A    between atoms: _179  and  _180
REMARK   60  A    between atoms: _183  and  _185
REMARK   61  A    between atoms: _185  and  _186
REMARK   62  A    between atoms: _185  and  _188
REMARK   63  A    between atoms: _188  and  _189
REMARK   64  A    between atoms: _192  and  _194
REMARK   65  A    between atoms: _194  and  _195
REMARK   66  A    between atoms: _194  and  _197
REMARK   67  A    between atoms: _197  and  _198
REMARK   68  A    between atoms: _199  and  ZN_409
REMARK   69  A    between atoms: _203  and  _205
REMARK   70  A    between atoms: _205  and  _206
REMARK   71  A    between atoms: _205  and  _208
REMARK   72  A    between atoms: _208  and  _209
REMARK   73  A    between atoms: _212  and  _214
REMARK   74  A    between atoms: _214  and  _215
REMARK   75  A    between atoms: _214  and  _217
REMARK   76  A    between atoms: _220  and  _222
REMARK   77  A    between atoms: _222  and  _223
REMARK   78  A    between atoms: _222  and  _225
REMARK   79  A    between atoms: _225  and  _226
REMARK   80  A    between atoms: _231  and  _233
REMARK   81  A    between atoms: _233  and  _234
REMARK   82  A    between atoms: _233  and  _236
REMARK   83  A    between atoms: _236  and  _237
REMARK   84  A    between atoms: _243  and  _245
REMARK   85  A    between atoms: _245  and  _246
REMARK   86  A    between atoms: _245  and  _248
REMARK   87  A    between atoms: _251  and  _253
REMARK   88  A    between atoms: _253  and  _254
REMARK   89  A    between atoms: _253  and  _256
REMARK   90  A    between atoms: _256  and  _257
REMARK   91  A    between atoms: _260  and  _262
REMARK   92  A    between atoms: _262  and  _263
REMARK   93  A    between atoms: _266  and  _268
REMARK   94  A    between atoms: _268  and  _269
REMARK   95  A    between atoms: _268  and  _271
REMARK   96  A    between atoms: _274  and  _276
REMARK   97  A    between atoms: _276  and  _277
REMARK   98  A    between atoms: _276  and  _279
REMARK   99  A    between atoms: _279  and  _280
REMARK  100  A    between atoms: _283  and  _285
REMARK  101  A    between atoms: _285  and  _286
REMARK  102  A    between atoms: _285  and  _288
REMARK  103  A    between atoms: _288  and  _289
REMARK  104  A    between atoms: _291  and  _293
REMARK  105  A    between atoms: _293  and  _294
REMARK  106  A    between atoms: _293  and  _296
REMARK  107  A    between atoms: _296  and  _297
REMARK  108  A    between atoms: _300  and  _302
REMARK  109  A    between atoms: _302  and  _303
REMARK  110  A    between atoms: _302  and  _305
REMARK  111  A    between atoms: _305  and  _306
REMARK  112  A    between atoms: _309  and  _311
REMARK  113  A    between atoms: _311  and  _312
REMARK  114  A    between atoms: _311  and  _314
REMARK  115  A    between atoms: _314  and  _315
REMARK  116  A    between atoms: _319  and  _320
REMARK  117  A    between atoms: _326  and  _327
REMARK  118  A    between atoms: _332  and  _334
REMARK  119  A    between atoms: _334  and  _335
REMARK  120  A    between atoms: _334  and  _337
REMARK  121  A    between atoms: _337  and  _338
REMARK  122  A    between atoms: _341  and  _343
REMARK  123  A    between atoms: _343  and  _344
REMARK  124  A    between atoms: _343  and  _346
REMARK  125  A    between atoms: _346  and  _347
REMARK  126  A    between atoms: _350  and  _352
REMARK  127  A    between atoms: _352  and  _353
REMARK  128  A    between atoms: _352  and  _355
REMARK  129  A    between atoms: _357  and  _359
REMARK  130  A    between atoms: _359  and  _360
REMARK  131  A    between atoms: _359  and  _362
REMARK  132  A    between atoms: _365  and  _367
REMARK  133  A    between atoms: _367  and  _368
REMARK  134  A    between atoms: _367  and  _370
REMARK  135  A    between atoms: _370  and  _371
REMARK  136  A    between atoms: _381  and  _383
REMARK  137  A    between atoms: _383  and  _384
REMARK  138  A    between atoms: _383  and  _386
REMARK  139  A    between atoms: _386  and  _387
REMARK  140  A    between atoms: _392  and  _394
REMARK  141  A    between atoms: _394  and  _395
REMARK  142  A    between atoms: _394  and  _397
REMARK  143  A    between atoms: _397  and  _398
REMARK  144  A    between atoms: _398  and  _399
REMARK  145  A    between atoms: _399  and  _400
REMARK                            x       y       z     vdW  Elec       q    Type
REMARK                         _______ _______ _______ _____ _____    ______ ____
ROOT
ATOM      1  O   HOH     1      18.693  -1.601  11.454  0.00  0.00    +0.000 OA
ENDROOT
TORSDOF 0
REMARK  Name = ../refined-set-2016/1zge/1zge_pocket.pdb
REMARK  145 active torsions:
REMARK  status: ('A' for Active; 'I' for Inactive)
REMARK    1  A    between atoms: _1  and  _3
REMARK    2  A    between atoms: _3  and  _4
REMARK    3  A    between atoms: _3  and  _6
REMARK    4  A    between atoms: _6  and  _7
REMARK    5  A    between atoms: _17  and  _19
REMARK    6  A    between atoms: _19  and  _20
REMARK    7  A    between atoms: _19  and  _22
REMARK    8  A    between atoms: _22  and  _23
REMARK    9  A    between atoms: _28  and  _29
REMARK   10  A    between atoms: _31  and  _33
REMARK   11  A    between atoms: _33  and  _34
REMARK   12  A    between atoms: _33  and  _36
REMARK   13  A    between atoms: _36  and  _37
REMARK   14  A    between atoms: _40  and  _41
REMARK   15  A    between atoms: _46  and  _48
REMARK   16  A    between atoms: _48  and  _49
REMARK   17  A    between atoms: _48  and  _51
REMARK   18  A    between atoms: _51  and  _52
REMARK   19  A    between atoms: _57  and  _59
REMARK   20  A    between atoms: _59  and  _60
REMARK   21  A    between atoms: _59  and  _62
REMARK   22  A    between atoms: _62  and  _63
REMARK   23  A    between atoms: _68  and  _70
REMARK   24  A    between atoms: _70  and  _71
REMARK   25  A    between atoms: _74  and  _76
REMARK   26  A    between atoms: _76  and  _77
REMARK   27  A    between atoms: _76  and  _79
REMARK   28  A    between atoms: _79  and  _80
REMARK   29  A    between atoms: _85  and  _87
REMARK   30  A    between atoms: _87  and  _88
REMARK   31  A    between atoms: _87  and  _90
REMARK   32  A    between atoms: _90  and  _91
REMARK   33  A    between atoms: _94  and  _96
REMARK   34  A    between atoms: _96  and  _97
REMARK   35  A    between atoms: _96  and  _99
REMARK   36  A    between atoms: _99  and  _100
REMARK   37  A    between atoms: _100  and  _101
REMARK   38  A    between atoms: _106  and  _108
REMARK   39  A    between atoms: _108  and  _109
REMARK   40  A    between atoms: _108  and  _111
REMARK   41  A    between atoms: _111  and  _112
REMARK   42  A    between atoms: _118  and  _120
REMARK   43  A    between atoms: _131  and  _134
REMARK   44  A    between atoms: _134  and  _135
REMARK   45  A    between atoms: _143  and  _144
REMARK   46  A    between atoms: _152  and  _154
REMARK   47  A    between atoms: _154  and  _155
REMARK   48  A    between atoms: _154  and  _157
REMARK   49  A    between atoms: _157  and  _158
REMARK   50  A    between atoms: _158  and  _159
REMARK   51  A    between atoms: _162  and  _164
REMARK   52  A    between atoms: _164  and  _165
REMARK   53  A    between atoms: _164  and  _167
REMARK   54  A    between atoms: _167  and  _168
REMARK   55  A    between atoms: _173  and  _175
REMARK   56  A    between atoms: _175  and  _176
REMARK   57  A    between atoms: _175  and  _178
REMARK   58  A    between atoms: _178  and  _179
REMARK   59  A    between atoms: _179  and  _180
REMARK   60  A    between atoms: _183  and  _185
REMARK   61  A    between atoms: _185  and  _186
REMARK   62  A    between atoms: _185  and  _188
REMARK   63  A    between atoms: _188  and  _189
REMARK   64  A    between atoms: _192  and  _194
REMARK   65  A    between atoms: _194  and  _195
REMARK   66  A    between atoms: _194  and  _197
REMARK   67  A    between atoms: _197  and  _198
REMARK   68  A    between atoms: _199  and  ZN_409
REMARK   69  A    between atoms: _203  and  _205
REMARK   70  A    between atoms: _205  and  _206
REMARK   71  A    between atoms: _205  and  _208
REMARK   72  A    between atoms: _208  and  _209
REMARK   73  A    between atoms: _212  and  _214
REMARK   74  A    between atoms: _214  and  _215
REMARK   75  A    between atoms: _214  and  _217
REMARK   76  A    between atoms: _220  and  _222
REMARK   77  A    between atoms: _222  and  _223
REMARK   78  A    between atoms: _222  and  _225
REMARK   79  A    between atoms: _225  and  _226
REMARK   80  A    between atoms: _231  and  _233
REMARK   81  A    between atoms: _233  and  _234
REMARK   82  A    between atoms: _233  and  _236
REMARK   83  A    between atoms: _236  and  _237
REMARK   84  A    between atoms: _243  and  _245
REMARK   85  A    between atoms: _245  and  _246
REMARK   86  A    between atoms: _245  and  _248
REMARK   87  A    between atoms: _251  and  _253
REMARK   88  A    between atoms: _253  and  _254
REMARK   89  A    between atoms: _253  and  _256
REMARK   90  A    between atoms: _256  and  _257
REMARK   91  A    between atoms: _260  and  _262
REMARK   92  A    between atoms: _262  and  _263
REMARK   93  A    between atoms: _266  and  _268
REMARK   94  A    between atoms: _268  and  _269
REMARK   95  A    between atoms: _268  and  _271
REMARK   96  A    between atoms: _274  and  _276
REMARK   97  A    between atoms: _276  and  _277
REMARK   98  A    between atoms: _276  and  _279
REMARK   99  A    between atoms: _279  and  _280
REMARK  100  A    between atoms: _283  and  _285
REMARK  101  A    between atoms: _285  and  _286
REMARK  102  A    between atoms: _285  and  _288
REMARK  103  A    between atoms: _288  and  _289
REMARK  104  A    between atoms: _291  and  _293
REMARK  105  A    between atoms: _293  and  _294
REMARK  106  A    between atoms: _293  and  _296
REMARK  107  A    between atoms: _296  and  _297
REMARK  108  A    between atoms: _300  and  _302
REMARK  109  A    between atoms: _302  and  _303
REMARK  110  A    between atoms: _302  and  _305
REMARK  111  A    between atoms: _305  and  _306
REMARK  112  A    between atoms: _309  and  _311
REMARK  113  A    between atoms: _311  and  _312
REMARK  114  A    between atoms: _311  and  _314
REMARK  115  A    between atoms: _314  and  _315
REMARK  116  A    between atoms: _319  and  _320
REMARK  117  A    between atoms: _326  and  _327
REMARK  118  A    between atoms: _332  and  _334
REMARK  119  A    between atoms: _334  and  _335
REMARK  120  A    between atoms: _334  and  _337
REMARK  121  A    between atoms: _337  and  _338
REMARK  122  A    between atoms: _341  and  _343
REMARK  123  A    between atoms: _343  and  _344
REMARK  124  A    between atoms: _343  and  _346
REMARK  125  A    between atoms: _346  and  _347
REMARK  126  A    between atoms: _350  and  _352
REMARK  127  A    between atoms: _352  and  _353
REMARK  128  A    between atoms: _352  and  _355
REMARK  129  A    between atoms: _357  and  _359
REMARK  130  A    between atoms: _359  and  _360
REMARK  131  A    between atoms: _359  and  _362
REMARK  132  A    between atoms: _365  and  _367
REMARK  133  A    between atoms: _367  and  _368
REMARK  134  A    between atoms: _367  and  _370
REMARK  135  A    between atoms: _370  and  _371
REMARK  136  A    between atoms: _381  and  _383
REMARK  137  A    between atoms: _383  and  _384
REMARK  138  A    between atoms: _383  and  _386
REMARK  139  A    between atoms: _386  and  _387
REMARK  140  A    between atoms: _392  and  _394
REMARK  141  A    between atoms: _394  and  _395
REMARK  142  A    between atoms: _394  and  _397
REMARK  143  A    between atoms: _397  and  _398
REMARK  144  A    between atoms: _398  and  _399
REMARK  145  A    between atoms: _399  and  _400
REMARK                            x       y       z     vdW  Elec       q    Type
REMARK                         _______ _______ _______ _____ _____    ______ ____
ROOT
ATOM      1  O   HOH     1      10.523  10.375   7.617  0.00  0.00    +0.000 OA
ENDROOT
TORSDOF 0
REMARK  Name = ../refined-set-2016/1zge/1zge_pocket.pdb
REMARK  145 active torsions:
REMARK  status: ('A' for Active; 'I' for Inactive)
REMARK    1  A    between atoms: _1  and  _3
REMARK    2  A    between atoms: _3  and  _4
REMARK    3  A    between atoms: _3  and  _6
REMARK    4  A    between atoms: _6  and  _7
REMARK    5  A    between atoms: _17  and  _19
REMARK    6  A    between atoms: _19  and  _20
REMARK    7  A    between atoms: _19  and  _22
REMARK    8  A    between atoms: _22  and  _23
REMARK    9  A    between atoms: _28  and  _29
REMARK   10  A    between atoms: _31  and  _33
REMARK   11  A    between atoms: _33  and  _34
REMARK   12  A    between atoms: _33  and  _36
REMARK   13  A    between atoms: _36  and  _37
REMARK   14  A    between atoms: _40  and  _41
REMARK   15  A    between atoms: _46  and  _48
REMARK   16  A    between atoms: _48  and  _49
REMARK   17  A    between atoms: _48  and  _51
REMARK   18  A    between atoms: _51  and  _52
REMARK   19  A    between atoms: _57  and  _59
REMARK   20  A    between atoms: _59  and  _60
REMARK   21  A    between atoms: _59  and  _62
REMARK   22  A    between atoms: _62  and  _63
REMARK   23  A    between atoms: _68  and  _70
REMARK   24  A    between atoms: _70  and  _71
REMARK   25  A    between atoms: _74  and  _76
REMARK   26  A    between atoms: _76  and  _77
REMARK   27  A    between atoms: _76  and  _79
REMARK   28  A    between atoms: _79  and  _80
REMARK   29  A    between atoms: _85  and  _87
REMARK   30  A    between atoms: _87  and  _88
REMARK   31  A    between atoms: _87  and  _90
REMARK   32  A    between atoms: _90  and  _91
REMARK   33  A    between atoms: _94  and  _96
REMARK   34  A    between atoms: _96  and  _97
REMARK   35  A    between atoms: _96  and  _99
REMARK   36  A    between atoms: _99  and  _100
REMARK   37  A    between atoms: _100  and  _101
REMARK   38  A    between atoms: _106  and  _108
REMARK   39  A    between atoms: _108  and  _109
REMARK   40  A    between atoms: _108  and  _111
REMARK   41  A    between atoms: _111  and  _112
REMARK   42  A    between atoms: _118  and  _120
REMARK   43  A    between atoms: _131  and  _134
REMARK   44  A    between atoms: _134  and  _135
REMARK   45  A    between atoms: _143  and  _144
REMARK   46  A    between atoms: _152  and  _154
REMARK   47  A    between atoms: _154  and  _155
REMARK   48  A    between atoms: _154  and  _157
REMARK   49  A    between atoms: _157  and  _158
REMARK   50  A    between atoms: _158  and  _159
REMARK   51  A    between atoms: _162  and  _164
REMARK   52  A    between atoms: _164  and  _165
REMARK   53  A    between atoms: _164  and  _167
REMARK   54  A    between atoms: _167  and  _168
REMARK   55  A    between atoms: _173  and  _175
REMARK   56  A    between atoms: _175  and  _176
REMARK   57  A    between atoms: _175  and  _178
REMARK   58  A    between atoms: _178  and  _179
REMARK   59  A    between atoms: _179  and  _180
REMARK   60  A    between atoms: _183  and  _185
REMARK   61  A    between atoms: _185  and  _186
REMARK   62  A    between atoms: _185  and  _188
REMARK   63  A    between atoms: _188  and  _189
REMARK   64  A    between atoms: _192  and  _194
REMARK   65  A    between atoms: _194  and  _195
REMARK   66  A    between atoms: _194  and  _197
REMARK   67  A    between atoms: _197  and  _198
REMARK   68  A    between atoms: _199  and  ZN_409
REMARK   69  A    between atoms: _203  and  _205
REMARK   70  A    between atoms: _205  and  _206
REMARK   71  A    between atoms: _205  and  _208
REMARK   72  A    between atoms: _208  and  _209
REMARK   73  A    between atoms: _212  and  _214
REMARK   74  A    between atoms: _214  and  _215
REMARK   75  A    between atoms: _214  and  _217
REMARK   76  A    between atoms: _220  and  _222
REMARK   77  A    between atoms: _222  and  _223
REMARK   78  A    between atoms: _222  and  _225
REMARK   79  A    between atoms: _225  and  _226
REMARK   80  A    between atoms: _231  and  _233
REMARK   81  A    between atoms: _233  and  _234
REMARK   82  A    between atoms: _233  and  _236
REMARK   83  A    between atoms: _236  and  _237
REMARK   84  A    between atoms: _243  and  _245
REMARK   85  A    between atoms: _245  and  _246
REMARK   86  A    between atoms: _245  and  _248
REMARK   87  A    between atoms: _251  and  _253
REMARK   88  A    between atoms: _253  and  _254
REMARK   89  A    between atoms: _253  and  _256
REMARK   90  A    between atoms: _256  and  _257
REMARK   91  A    between atoms: _260  and  _262
REMARK   92  A    between atoms: _262  and  _263
REMARK   93  A    between atoms: _266  and  _268
REMARK   94  A    between atoms: _268  and  _269
REMARK   95  A    between atoms: _268  and  _271
REMARK   96  A    between atoms: _274  and  _276
REMARK   97  A    between atoms: _276  and  _277
REMARK   98  A    between atoms: _276  and  _279
REMARK   99  A    between atoms: _279  and  _280
REMARK  100  A    between atoms: _283  and  _285
REMARK  101  A    between atoms: _285  and  _286
REMARK  102  A    between atoms: _285  and  _288
REMARK  103  A    between atoms: _288  and  _289
REMARK  104  A    between atoms: _291  and  _293
REMARK  105  A    between atoms: _293  and  _294
REMARK  106  A    between atoms: _293  and  _296
REMARK  107  A    between atoms: _296  and  _297
REMARK  108  A    between atoms: _300  and  _302
REMARK  109  A    between atoms: _302  and  _303
REMARK  110  A    between atoms: _302  and  _305
REMARK  111  A    between atoms: _305  and  _306
REMARK  112  A    between atoms: _309  and  _311
REMARK  113  A    between atoms: _311  and  _312
REMARK  114  A    between atoms: _311  and  _314
REMARK  115  A    between atoms: _314  and  _315
REMARK  116  A    between atoms: _319  and  _320
REMARK  117  A    between atoms: _326  and  _327
REMARK  118  A    between atoms: _332  and  _334
REMARK  119  A    between atoms: _334  and  _335
REMARK  120  A    between atoms: _334  and  _337
REMARK  121  A    between atoms: _337  and  _338
REMARK  122  A    between atoms: _341  and  _343
REMARK  123  A    between atoms: _343  and  _344
REMARK  124  A    between atoms: _343  and  _346
REMARK  125  A    between atoms: _346  and  _347
REMARK  126  A    between atoms: _350  and  _352
REMARK  127  A    between atoms: _352  and  _353
REMARK  128  A    between atoms: _352  and  _355
REMARK  129  A    between atoms: _357  and  _359
REMARK  130  A    between atoms: _359  and  _360
REMARK  131  A    between atoms: _359  and  _362
REMARK  132  A    between atoms: _365  and  _367
REMARK  133  A    between atoms: _367  and  _368
REMARK  134  A    between atoms: _367  and  _370
REMARK  135  A    between atoms: _370  and  _371
REMARK  136  A    between atoms: _381  and  _383
REMARK  137  A    between atoms: _383  and  _384
REMARK  138  A    between atoms: _383  and  _386
REMARK  139  A    between atoms: _386  and  _387
REMARK  140  A    between atoms: _392  and  _394
REMARK  141  A    between atoms: _394  and  _395
REMARK  142  A    between atoms: _394  and  _397
REMARK  143  A    between atoms: _397  and  _398
REMARK  144  A    between atoms: _398  and  _399
REMARK  145  A    between atoms: _399  and  _400
REMARK                            x       y       z     vdW  Elec       q    Type
REMARK                         _______ _______ _______ _____ _____    ______ ____
ROOT
ATOM      1  O   HOH     1      14.339   8.408  10.291  0.00  0.00    +0.000 OA
ENDROOT
TORSDOF 0
REMARK  Name = ../refined-set-2016/1zge/1zge_pocket.pdb
REMARK  145 active torsions:
REMARK  status: ('A' for Active; 'I' for Inactive)
REMARK    1  A    between atoms: _1  and  _3
REMARK    2  A    between atoms: _3  and  _4
REMARK    3  A    between atoms: _3  and  _6
REMARK    4  A    between atoms: _6  and  _7
REMARK    5  A    between atoms: _17  and  _19
REMARK    6  A    between atoms: _19  and  _20
REMARK    7  A    between atoms: _19  and  _22
REMARK    8  A    between atoms: _22  and  _23
REMARK    9  A    between atoms: _28  and  _29
REMARK   10  A    between atoms: _31  and  _33
REMARK   11  A    between atoms: _33  and  _34
REMARK   12  A    between atoms: _33  and  _36
REMARK   13  A    between atoms: _36  and  _37
REMARK   14  A    between atoms: _40  and  _41
REMARK   15  A    between atoms: _46  and  _48
REMARK   16  A    between atoms: _48  and  _49
REMARK   17  A    between atoms: _48  and  _51
REMARK   18  A    between atoms: _51  and  _52
REMARK   19  A    between atoms: _57  and  _59
REMARK   20  A    between atoms: _59  and  _60
REMARK   21  A    between atoms: _59  and  _62
REMARK   22  A    between atoms: _62  and  _63
REMARK   23  A    between atoms: _68  and  _70
REMARK   24  A    between atoms: _70  and  _71
REMARK   25  A    between atoms: _74  and  _76
REMARK   26  A    between atoms: _76  and  _77
REMARK   27  A    between atoms: _76  and  _79
REMARK   28  A    between atoms: _79  and  _80
REMARK   29  A    between atoms: _85  and  _87
REMARK   30  A    between atoms: _87  and  _88
REMARK   31  A    between atoms: _87  and  _90
REMARK   32  A    between atoms: _90  and  _91
REMARK   33  A    between atoms: _94  and  _96
REMARK   34  A    between atoms: _96  and  _97
REMARK   35  A    between atoms: _96  and  _99
REMARK   36  A    between atoms: _99  and  _100
REMARK   37  A    between atoms: _100  and  _101
REMARK   38  A    between atoms: _106  and  _108
REMARK   39  A    between atoms: _108  and  _109
REMARK   40  A    between atoms: _108  and  _111
REMARK   41  A    between atoms: _111  and  _112
REMARK   42  A    between atoms: _118  and  _120
REMARK   43  A    between atoms: _131  and  _134
REMARK   44  A    between atoms: _134  and  _135
REMARK   45  A    between atoms: _143  and  _144
REMARK   46  A    between atoms: _152  and  _154
REMARK   47  A    between atoms: _154  and  _155
REMARK   48  A    between atoms: _154  and  _157
REMARK   49  A    between atoms: _157  and  _158
REMARK   50  A    between atoms: _158  and  _159
REMARK   51  A    between atoms: _162  and  _164
REMARK   52  A    between atoms: _164  and  _165
REMARK   53  A    between atoms: _164  and  _167
REMARK   54  A    between atoms: _167  and  _168
REMARK   55  A    between atoms: _173  and  _175
REMARK   56  A    between atoms: _175  and  _176
REMARK   57  A    between atoms: _175  and  _178
REMARK   58  A    between atoms: _178  and  _179
REMARK   59  A    between atoms: _179  and  _180
REMARK   60  A    between atoms: _183  and  _185
REMARK   61  A    between atoms: _185  and  _186
REMARK   62  A    between atoms: _185  and  _188
REMARK   63  A    between atoms: _188  and  _189
REMARK   64  A    between atoms: _192  and  _194
REMARK   65  A    between atoms: _194  and  _195
REMARK   66  A    between atoms: _194  and  _197
REMARK   67  A    between atoms: _197  and  _198
REMARK   68  A    between atoms: _199  and  ZN_409
REMARK   69  A    between atoms: _203  and  _205
REMARK   70  A    between atoms: _205  and  _206
REMARK   71  A    between atoms: _205  and  _208
REMARK   72  A    between atoms: _208  and  _209
REMARK   73  A    between atoms: _212  and  _214
REMARK   74  A    between atoms: _214  and  _215
REMARK   75  A    between atoms: _214  and  _217
REMARK   76  A    between atoms: _220  and  _222
REMARK   77  A    between atoms: _222  and  _223
REMARK   78  A    between atoms: _222  and  _225
REMARK   79  A    between atoms: _225  and  _226
REMARK   80  A    between atoms: _231  and  _233
REMARK   81  A    between atoms: _233  and  _234
REMARK   82  A    between atoms: _233  and  _236
REMARK   83  A    between atoms: _236  and  _237
REMARK   84  A    between atoms: _243  and  _245
REMARK   85  A    between atoms: _245  and  _246
REMARK   86  A    between atoms: _245  and  _248
REMARK   87  A    between atoms: _251  and  _253
REMARK   88  A    between atoms: _253  and  _254
REMARK   89  A    between atoms: _253  and  _256
REMARK   90  A    between atoms: _256  and  _257
REMARK   91  A    between atoms: _260  and  _262
REMARK   92  A    between atoms: _262  and  _263
REMARK   93  A    between atoms: _266  and  _268
REMARK   94  A    between atoms: _268  and  _269
REMARK   95  A    between atoms: _268  and  _271
REMARK   96  A    between atoms: _274  and  _276
REMARK   97  A    between atoms: _276  and  _277
REMARK   98  A    between atoms: _276  and  _279
REMARK   99  A    between atoms: _279  and  _280
REMARK  100  A    between atoms: _283  and  _285
REMARK  101  A    between atoms: _285  and  _286
REMARK  102  A    between atoms: _285  and  _288
REMARK  103  A    between atoms: _288  and  _289
REMARK  104  A    between atoms: _291  and  _293
REMARK  105  A    between atoms: _293  and  _294
REMARK  106  A    between atoms: _293  and  _296
REMARK  107  A    between atoms: _296  and  _297
REMARK  108  A    between atoms: _300  and  _302
REMARK  109  A    between atoms: _302  and  _303
REMARK  110  A    between atoms: _302  and  _305
REMARK  111  A    between atoms: _305  and  _306
REMARK  112  A    between atoms: _309  and  _311
REMARK  113  A    between atoms: _311  and  _312
REMARK  114  A    between atoms: _311  and  _314
REMARK  115  A    between atoms: _314  and  _315
REMARK  116  A    between atoms: _319  and  _320
REMARK  117  A    between atoms: _326  and  _327
REMARK  118  A    between atoms: _332  and  _334
REMARK  119  A    between atoms: _334  and  _335
REMARK  120  A    between atoms: _334  and  _337
REMARK  121  A    between atoms: _337  and  _338
REMARK  122  A    between atoms: _341  and  _343
REMARK  123  A    between atoms: _343  and  _344
REMARK  124  A    between atoms: _343  and  _346
REMARK  125  A    between atoms: _346  and  _347
REMARK  126  A    between atoms: _350  and  _352
REMARK  127  A    between atoms: _352  and  _353
REMARK  128  A    between atoms: _352  and  _355
REMARK  129  A    between atoms: _357  and  _359
REMARK  130  A    between atoms: _359  and  _360
REMARK  131  A    between atoms: _359  and  _362
REMARK  132  A    between atoms: _365  and  _367
REMARK  133  A    between atoms: _367  and  _368
REMARK  134  A    between atoms: _367  and  _370
REMARK  135  A    between atoms: _370  and  _371
REMARK  136  A    between atoms: _381  and  _383
REMARK  137  A    between atoms: _383  and  _384
REMARK  138  A    between atoms: _383  and  _386
REMARK  139  A    between atoms: _386  and  _387
REMARK  140  A    between atoms: _392  and  _394
REMARK  141  A    between atoms: _394  and  _395
REMARK  142  A    between atoms: _394  and  _397
REMARK  143  A    between atoms: _397  and  _398
REMARK  144  A    between atoms: _398  and  _399
REMARK  145  A    between atoms: _399  and  _400
REMARK                            x       y       z     vdW  Elec       q    Type
REMARK                         _______ _______ _______ _____ _____    ______ ____
ROOT
ATOM      1  O   HOH     1      14.106   7.619   6.219  0.00  0.00    +0.000 OA
ENDROOT
TORSDOF 0
REMARK  Name = ../refined-set-2016/1zge/1zge_pocket.pdb
REMARK  145 active torsions:
REMARK  status: ('A' for Active; 'I' for Inactive)
REMARK    1  A    between atoms: _1  and  _3
REMARK    2  A    between atoms: _3  and  _4
REMARK    3  A    between atoms: _3  and  _6
REMARK    4  A    between atoms: _6  and  _7
REMARK    5  A    between atoms: _17  and  _19
REMARK    6  A    between atoms: _19  and  _20
REMARK    7  A    between atoms: _19  and  _22
REMARK    8  A    between atoms: _22  and  _23
REMARK    9  A    between atoms: _28  and  _29
REMARK   10  A    between atoms: _31  and  _33
REMARK   11  A    between atoms: _33  and  _34
REMARK   12  A    between atoms: _33  and  _36
REMARK   13  A    between atoms: _36  and  _37
REMARK   14  A    between atoms: _40  and  _41
REMARK   15  A    between atoms: _46  and  _48
REMARK   16  A    between atoms: _48  and  _49
REMARK   17  A    between atoms: _48  and  _51
REMARK   18  A    between atoms: _51  and  _52
REMARK   19  A    between atoms: _57  and  _59
REMARK   20  A    between atoms: _59  and  _60
REMARK   21  A    between atoms: _59  and  _62
REMARK   22  A    between atoms: _62  and  _63
REMARK   23  A    between atoms: _68  and  _70
REMARK   24  A    between atoms: _70  and  _71
REMARK   25  A    between atoms: _74  and  _76
REMARK   26  A    between atoms: _76  and  _77
REMARK   27  A    between atoms: _76  and  _79
REMARK   28  A    between atoms: _79  and  _80
REMARK   29  A    between atoms: _85  and  _87
REMARK   30  A    between atoms: _87  and  _88
REMARK   31  A    between atoms: _87  and  _90
REMARK   32  A    between atoms: _90  and  _91
REMARK   33  A    between atoms: _94  and  _96
REMARK   34  A    between atoms: _96  and  _97
REMARK   35  A    between atoms: _96  and  _99
REMARK   36  A    between atoms: _99  and  _100
REMARK   37  A    between atoms: _100  and  _101
REMARK   38  A    between atoms: _106  and  _108
REMARK   39  A    between atoms: _108  and  _109
REMARK   40  A    between atoms: _108  and  _111
REMARK   41  A    between atoms: _111  and  _112
REMARK   42  A    between atoms: _118  and  _120
REMARK   43  A    between atoms: _131  and  _134
REMARK   44  A    between atoms: _134  and  _135
REMARK   45  A    between atoms: _143  and  _144
REMARK   46  A    between atoms: _152  and  _154
REMARK   47  A    between atoms: _154  and  _155
REMARK   48  A    between atoms: _154  and  _157
REMARK   49  A    between atoms: _157  and  _158
REMARK   50  A    between atoms: _158  and  _159
REMARK   51  A    between atoms: _162  and  _164
REMARK   52  A    between atoms: _164  and  _165
REMARK   53  A    between atoms: _164  and  _167
REMARK   54  A    between atoms: _167  and  _168
REMARK   55  A    between atoms: _173  and  _175
REMARK   56  A    between atoms: _175  and  _176
REMARK   57  A    between atoms: _175  and  _178
REMARK   58  A    between atoms: _178  and  _179
REMARK   59  A    between atoms: _179  and  _180
REMARK   60  A    between atoms: _183  and  _185
REMARK   61  A    between atoms: _185  and  _186
REMARK   62  A    between atoms: _185  and  _188
REMARK   63  A    between atoms: _188  and  _189
REMARK   64  A    between atoms: _192  and  _194
REMARK   65  A    between atoms: _194  and  _195
REMARK   66  A    between atoms: _194  and  _197
REMARK   67  A    between atoms: _197  and  _198
REMARK   68  A    between atoms: _199  and  ZN_409
REMARK   69  A    between atoms: _203  and  _205
REMARK   70  A    between atoms: _205  and  _206
REMARK   71  A    between atoms: _205  and  _208
REMARK   72  A    between atoms: _208  and  _209
REMARK   73  A    between atoms: _212  and  _214
REMARK   74  A    between atoms: _214  and  _215
REMARK   75  A    between atoms: _214  and  _217
REMARK   76  A    between atoms: _220  and  _222
REMARK   77  A    between atoms: _222  and  _223
REMARK   78  A    between atoms: _222  and  _225
REMARK   79  A    between atoms: _225  and  _226
REMARK   80  A    between atoms: _231  and  _233
REMARK   81  A    between atoms: _233  and  _234
REMARK   82  A    between atoms: _233  and  _236
REMARK   83  A    between atoms: _236  and  _237
REMARK   84  A    between atoms: _243  and  _245
REMARK   85  A    between atoms: _245  and  _246
REMARK   86  A    between atoms: _245  and  _248
REMARK   87  A    between atoms: _251  and  _253
REMARK   88  A    between atoms: _253  and  _254
REMARK   89  A    between atoms: _253  and  _256
REMARK   90  A    between atoms: _256  and  _257
REMARK   91  A    between atoms: _260  and  _262
REMARK   92  A    between atoms: _262  and  _263
REMARK   93  A    between atoms: _266  and  _268
REMARK   94  A    between atoms: _268  and  _269
REMARK   95  A    between atoms: _268  and  _271
REMARK   96  A    between atoms: _274  and  _276
REMARK   97  A    between atoms: _276  and  _277
REMARK   98  A    between atoms: _276  and  _279
REMARK   99  A    between atoms: _279  and  _280
REMARK  100  A    between atoms: _283  and  _285
REMARK  101  A    between atoms: _285  and  _286
REMARK  102  A    between atoms: _285  and  _288
REMARK  103  A    between atoms: _288  and  _289
REMARK  104  A    between atoms: _291  and  _293
REMARK  105  A    between atoms: _293  and  _294
REMARK  106  A    between atoms: _293  and  _296
REMARK  107  A    between atoms: _296  and  _297
REMARK  108  A    between atoms: _300  and  _302
REMARK  109  A    between atoms: _302  and  _303
REMARK  110  A    between atoms: _302  and  _305
REMARK  111  A    between atoms: _305  and  _306
REMARK  112  A    between atoms: _309  and  _311
REMARK  113  A    between atoms: _311  and  _312
REMARK  114  A    between atoms: _311  and  _314
REMARK  115  A    between atoms: _314  and  _315
REMARK  116  A    between atoms: _319  and  _320
REMARK  117  A    between atoms: _326  and  _327
REMARK  118  A    between atoms: _332  and  _334
REMARK  119  A    between atoms: _334  and  _335
REMARK  120  A    between atoms: _334  and  _337
REMARK  121  A    between atoms: _337  and  _338
REMARK  122  A    between atoms: _341  and  _343
REMARK  123  A    between atoms: _343  and  _344
REMARK  124  A    between atoms: _343  and  _346
REMARK  125  A    between atoms: _346  and  _347
REMARK  126  A    between atoms: _350  and  _352
REMARK  127  A    between atoms: _352  and  _353
REMARK  128  A    between atoms: _352  and  _355
REMARK  129  A    between atoms: _357  and  _359
REMARK  130  A    between atoms: _359  and  _360
REMARK  131  A    between atoms: _359  and  _362
REMARK  132  A    between atoms: _365  and  _367
REMARK  133  A    between atoms: _367  and  _368
REMARK  134  A    between atoms: _367  and  _370
REMARK  135  A    between atoms: _370  and  _371
REMARK  136  A    between atoms: _381  and  _383
REMARK  137  A    between atoms: _383  and  _384
REMARK  138  A    between atoms: _383  and  _386
REMARK  139  A    between atoms: _386  and  _387
REMARK  140  A    between atoms: _392  and  _394
REMARK  141  A    between atoms: _394  and  _395
REMARK  142  A    between atoms: _394  and  _397
REMARK  143  A    between atoms: _397  and  _398
REMARK  144  A    between atoms: _398  and  _399
REMARK  145  A    between atoms: _399  and  _400
REMARK                            x       y       z     vdW  Elec       q    Type
REMARK                         _______ _______ _______ _____ _____    ______ ____
ROOT
ATOM      1  O   HOH     1      12.842   9.458   8.028  0.00  0.00    +0.000 OA
ENDROOT
TORSDOF 0
REMARK  Name = ../refined-set-2016/1zge/1zge_pocket.pdb
REMARK  145 active torsions:
REMARK  status: ('A' for Active; 'I' for Inactive)
REMARK    1  A    between atoms: _1  and  _3
REMARK    2  A    between atoms: _3  and  _4
REMARK    3  A    between atoms: _3  and  _6
REMARK    4  A    between atoms: _6  and  _7
REMARK    5  A    between atoms: _17  and  _19
REMARK    6  A    between atoms: _19  and  _20
REMARK    7  A    between atoms: _19  and  _22
REMARK    8  A    between atoms: _22  and  _23
REMARK    9  A    between atoms: _28  and  _29
REMARK   10  A    between atoms: _31  and  _33
REMARK   11  A    between atoms: _33  and  _34
REMARK   12  A    between atoms: _33  and  _36
REMARK   13  A    between atoms: _36  and  _37
REMARK   14  A    between atoms: _40  and  _41
REMARK   15  A    between atoms: _46  and  _48
REMARK   16  A    between atoms: _48  and  _49
REMARK   17  A    between atoms: _48  and  _51
REMARK   18  A    between atoms: _51  and  _52
REMARK   19  A    between atoms: _57  and  _59
REMARK   20  A    between atoms: _59  and  _60
REMARK   21  A    between atoms: _59  and  _62
REMARK   22  A    between atoms: _62  and  _63
REMARK   23  A    between atoms: _68  and  _70
REMARK   24  A    between atoms: _70  and  _71
REMARK   25  A    between atoms: _74  and  _76
REMARK   26  A    between atoms: _76  and  _77
REMARK   27  A    between atoms: _76  and  _79
REMARK   28  A    between atoms: _79  and  _80
REMARK   29  A    between atoms: _85  and  _87
REMARK   30  A    between atoms: _87  and  _88
REMARK   31  A    between atoms: _87  and  _90
REMARK   32  A    between atoms: _90  and  _91
REMARK   33  A    between atoms: _94  and  _96
REMARK   34  A    between atoms: _96  and  _97
REMARK   35  A    between atoms: _96  and  _99
REMARK   36  A    between atoms: _99  and  _100
REMARK   37  A    between atoms: _100  and  _101
REMARK   38  A    between atoms: _106  and  _108
REMARK   39  A    between atoms: _108  and  _109
REMARK   40  A    between atoms: _108  and  _111
REMARK   41  A    between atoms: _111  and  _112
REMARK   42  A    between atoms: _118  and  _120
REMARK   43  A    between atoms: _131  and  _134
REMARK   44  A    between atoms: _134  and  _135
REMARK   45  A    between atoms: _143  and  _144
REMARK   46  A    between atoms: _152  and  _154
REMARK   47  A    between atoms: _154  and  _155
REMARK   48  A    between atoms: _154  and  _157
REMARK   49  A    between atoms: _157  and  _158
REMARK   50  A    between atoms: _158  and  _159
REMARK   51  A    between atoms: _162  and  _164
REMARK   52  A    between atoms: _164  and  _165
REMARK   53  A    between atoms: _164  and  _167
REMARK   54  A    between atoms: _167  and  _168
REMARK   55  A    between atoms: _173  and  _175
REMARK   56  A    between atoms: _175  and  _176
REMARK   57  A    between atoms: _175  and  _178
REMARK   58  A    between atoms: _178  and  _179
REMARK   59  A    between atoms: _179  and  _180
REMARK   60  A    between atoms: _183  and  _185
REMARK   61  A    between atoms: _185  and  _186
REMARK   62  A    between atoms: _185  and  _188
REMARK   63  A    between atoms: _188  and  _189
REMARK   64  A    between atoms: _192  and  _194
REMARK   65  A    between atoms: _194  and  _195
REMARK   66  A    between atoms: _194  and  _197
REMARK   67  A    between atoms: _197  and  _198
REMARK   68  A    between atoms: _199  and  ZN_409
REMARK   69  A    between atoms: _203  and  _205
REMARK   70  A    between atoms: _205  and  _206
REMARK   71  A    between atoms: _205  and  _208
REMARK   72  A    between atoms: _208  and  _209
REMARK   73  A    between atoms: _212  and  _214
REMARK   74  A    between atoms: _214  and  _215
REMARK   75  A    between atoms: _214  and  _217
REMARK   76  A    between atoms: _220  and  _222
REMARK   77  A    between atoms: _222  and  _223
REMARK   78  A    between atoms: _222  and  _225
REMARK   79  A    between atoms: _225  and  _226
REMARK   80  A    between atoms: _231  and  _233
REMARK   81  A    between atoms: _233  and  _234
REMARK   82  A    between atoms: _233  and  _236
REMARK   83  A    between atoms: _236  and  _237
REMARK   84  A    between atoms: _243  and  _245
REMARK   85  A    between atoms: _245  and  _246
REMARK   86  A    between atoms: _245  and  _248
REMARK   87  A    between atoms: _251  and  _253
REMARK   88  A    between atoms: _253  and  _254
REMARK   89  A    between atoms: _253  and  _256
REMARK   90  A    between atoms: _256  and  _257
REMARK   91  A    between atoms: _260  and  _262
REMARK   92  A    between atoms: _262  and  _263
REMARK   93  A    between atoms: _266  and  _268
REMARK   94  A    between atoms: _268  and  _269
REMARK   95  A    between atoms: _268  and  _271
REMARK   96  A    between atoms: _274  and  _276
REMARK   97  A    between atoms: _276  and  _277
REMARK   98  A    between atoms: _276  and  _279
REMARK   99  A    between atoms: _279  and  _280
REMARK  100  A    between atoms: _283  and  _285
REMARK  101  A    between atoms: _285  and  _286
REMARK  102  A    between atoms: _285  and  _288
REMARK  103  A    between atoms: _288  and  _289
REMARK  104  A    between atoms: _291  and  _293
REMARK  105  A    between atoms: _293  and  _294
REMARK  106  A    between atoms: _293  and  _296
REMARK  107  A    between atoms: _296  and  _297
REMARK  108  A    between atoms: _300  and  _302
REMARK  109  A    between atoms: _302  and  _303
REMARK  110  A    between atoms: _302  and  _305
REMARK  111  A    between atoms: _305  and  _306
REMARK  112  A    between atoms: _309  and  _311
REMARK  113  A    between atoms: _311  and  _312
REMARK  114  A    between atoms: _311  and  _314
REMARK  115  A    between atoms: _314  and  _315
REMARK  116  A    between atoms: _319  and  _320
REMARK  117  A    between atoms: _326  and  _327
REMARK  118  A    between atoms: _332  and  _334
REMARK  119  A    between atoms: _334  and  _335
REMARK  120  A    between atoms: _334  and  _337
REMARK  121  A    between atoms: _337  and  _338
REMARK  122  A    between atoms: _341  and  _343
REMARK  123  A    between atoms: _343  and  _344
REMARK  124  A    between atoms: _343  and  _346
REMARK  125  A    between atoms: _346  and  _347
REMARK  126  A    between atoms: _350  and  _352
REMARK  127  A    between atoms: _352  and  _353
REMARK  128  A    between atoms: _352  and  _355
REMARK  129  A    between atoms: _357  and  _359
REMARK  130  A    between atoms: _359  and  _360
REMARK  131  A    between atoms: _359  and  _362
REMARK  132  A    between atoms: _365  and  _367
REMARK  133  A    between atoms: _367  and  _368
REMARK  134  A    between atoms: _367  and  _370
REMARK  135  A    between atoms: _370  and  _371
REMARK  136  A    between atoms: _381  and  _383
REMARK  137  A    between atoms: _383  and  _384
REMARK  138  A    between atoms: _383  and  _386
REMARK  139  A    between atoms: _386  and  _387
REMARK  140  A    between atoms: _392  and  _394
REMARK  141  A    between atoms: _394  and  _395
REMARK  142  A    between atoms: _394  and  _397
REMARK  143  A    between atoms: _397  and  _398
REMARK  144  A    between atoms: _398  and  _399
REMARK  145  A    between atoms: _399  and  _400
REMARK                            x       y       z     vdW  Elec       q    Type
REMARK                         _______ _______ _______ _____ _____    ______ ____
ROOT
ATOM      1  O   HOH     1      20.075   2.987  11.651  0.00  0.00    +0.000 OA
ENDROOT
TORSDOF 0
REMARK  Name = ../refined-set-2016/1zge/1zge_pocket.pdb
REMARK  145 active torsions:
REMARK  status: ('A' for Active; 'I' for Inactive)
REMARK    1  A    between atoms: _1  and  _3
REMARK    2  A    between atoms: _3  and  _4
REMARK    3  A    between atoms: _3  and  _6
REMARK    4  A    between atoms: _6  and  _7
REMARK    5  A    between atoms: _17  and  _19
REMARK    6  A    between atoms: _19  and  _20
REMARK    7  A    between atoms: _19  and  _22
REMARK    8  A    between atoms: _22  and  _23
REMARK    9  A    between atoms: _28  and  _29
REMARK   10  A    between atoms: _31  and  _33
REMARK   11  A    between atoms: _33  and  _34
REMARK   12  A    between atoms: _33  and  _36
REMARK   13  A    between atoms: _36  and  _37
REMARK   14  A    between atoms: _40  and  _41
REMARK   15  A    between atoms: _46  and  _48
REMARK   16  A    between atoms: _48  and  _49
REMARK   17  A    between atoms: _48  and  _51
REMARK   18  A    between atoms: _51  and  _52
REMARK   19  A    between atoms: _57  and  _59
REMARK   20  A    between atoms: _59  and  _60
REMARK   21  A    between atoms: _59  and  _62
REMARK   22  A    between atoms: _62  and  _63
REMARK   23  A    between atoms: _68  and  _70
REMARK   24  A    between atoms: _70  and  _71
REMARK   25  A    between atoms: _74  and  _76
REMARK   26  A    between atoms: _76  and  _77
REMARK   27  A    between atoms: _76  and  _79
REMARK   28  A    between atoms: _79  and  _80
REMARK   29  A    between atoms: _85  and  _87
REMARK   30  A    between atoms: _87  and  _88
REMARK   31  A    between atoms: _87  and  _90
REMARK   32  A    between atoms: _90  and  _91
REMARK   33  A    between atoms: _94  and  _96
REMARK   34  A    between atoms: _96  and  _97
REMARK   35  A    between atoms: _96  and  _99
REMARK   36  A    between atoms: _99  and  _100
REMARK   37  A    between atoms: _100  and  _101
REMARK   38  A    between atoms: _106  and  _108
REMARK   39  A    between atoms: _108  and  _109
REMARK   40  A    between atoms: _108  and  _111
REMARK   41  A    between atoms: _111  and  _112
REMARK   42  A    between atoms: _118  and  _120
REMARK   43  A    between atoms: _131  and  _134
REMARK   44  A    between atoms: _134  and  _135
REMARK   45  A    between atoms: _143  and  _144
REMARK   46  A    between atoms: _152  and  _154
REMARK   47  A    between atoms: _154  and  _155
REMARK   48  A    between atoms: _154  and  _157
REMARK   49  A    between atoms: _157  and  _158
REMARK   50  A    between atoms: _158  and  _159
REMARK   51  A    between atoms: _162  and  _164
REMARK   52  A    between atoms: _164  and  _165
REMARK   53  A    between atoms: _164  and  _167
REMARK   54  A    between atoms: _167  and  _168
REMARK   55  A    between atoms: _173  and  _175
REMARK   56  A    between atoms: _175  and  _176
REMARK   57  A    between atoms: _175  and  _178
REMARK   58  A    between atoms: _178  and  _179
REMARK   59  A    between atoms: _179  and  _180
REMARK   60  A    between atoms: _183  and  _185
REMARK   61  A    between atoms: _185  and  _186
REMARK   62  A    between atoms: _185  and  _188
REMARK   63  A    between atoms: _188  and  _189
REMARK   64  A    between atoms: _192  and  _194
REMARK   65  A    between atoms: _194  and  _195
REMARK   66  A    between atoms: _194  and  _197
REMARK   67  A    between atoms: _197  and  _198
REMARK   68  A    between atoms: _199  and  ZN_409
REMARK   69  A    between atoms: _203  and  _205
REMARK   70  A    between atoms: _205  and  _206
REMARK   71  A    between atoms: _205  and  _208
REMARK   72  A    between atoms: _208  and  _209
REMARK   73  A    between atoms: _212  and  _214
REMARK   74  A    between atoms: _214  and  _215
REMARK   75  A    between atoms: _214  and  _217
REMARK   76  A    between atoms: _220  and  _222
REMARK   77  A    between atoms: _222  and  _223
REMARK   78  A    between atoms: _222  and  _225
REMARK   79  A    between atoms: _225  and  _226
REMARK   80  A    between atoms: _231  and  _233
REMARK   81  A    between atoms: _233  and  _234
REMARK   82  A    between atoms: _233  and  _236
REMARK   83  A    between atoms: _236  and  _237
REMARK   84  A    between atoms: _243  and  _245
REMARK   85  A    between atoms: _245  and  _246
REMARK   86  A    between atoms: _245  and  _248
REMARK   87  A    between atoms: _251  and  _253
REMARK   88  A    between atoms: _253  and  _254
REMARK   89  A    between atoms: _253  and  _256
REMARK   90  A    between atoms: _256  and  _257
REMARK   91  A    between atoms: _260  and  _262
REMARK   92  A    between atoms: _262  and  _263
REMARK   93  A    between atoms: _266  and  _268
REMARK   94  A    between atoms: _268  and  _269
REMARK   95  A    between atoms: _268  and  _271
REMARK   96  A    between atoms: _274  and  _276
REMARK   97  A    between atoms: _276  and  _277
REMARK   98  A    between atoms: _276  and  _279
REMARK   99  A    between atoms: _279  and  _280
REMARK  100  A    between atoms: _283  and  _285
REMARK  101  A    between atoms: _285  and  _286
REMARK  102  A    between atoms: _285  and  _288
REMARK  103  A    between atoms: _288  and  _289
REMARK  104  A    between atoms: _291  and  _293
REMARK  105  A    between atoms: _293  and  _294
REMARK  106  A    between atoms: _293  and  _296
REMARK  107  A    between atoms: _296  and  _297
REMARK  108  A    between atoms: _300  and  _302
REMARK  109  A    between atoms: _302  and  _303
REMARK  110  A    between atoms: _302  and  _305
REMARK  111  A    between atoms: _305  and  _306
REMARK  112  A    between atoms: _309  and  _311
REMARK  113  A    between atoms: _311  and  _312
REMARK  114  A    between atoms: _311  and  _314
REMARK  115  A    between atoms: _314  and  _315
REMARK  116  A    between atoms: _319  and  _320
REMARK  117  A    between atoms: _326  and  _327
REMARK  118  A    between atoms: _332  and  _334
REMARK  119  A    between atoms: _334  and  _335
REMARK  120  A    between atoms: _334  and  _337
REMARK  121  A    between atoms: _337  and  _338
REMARK  122  A    between atoms: _341  and  _343
REMARK  123  A    between atoms: _343  and  _344
REMARK  124  A    between atoms: _343  and  _346
REMARK  125  A    between atoms: _346  and  _347
REMARK  126  A    between atoms: _350  and  _352
REMARK  127  A    between atoms: _352  and  _353
REMARK  128  A    between atoms: _352  and  _355
REMARK  129  A    between atoms: _357  and  _359
REMARK  130  A    between atoms: _359  and  _360
REMARK  131  A    between atoms: _359  and  _362
REMARK  132  A    between atoms: _365  and  _367
REMARK  133  A    between atoms: _367  and  _368
REMARK  134  A    between atoms: _367  and  _370
REMARK  135  A    between atoms: _370  and  _371
REMARK  136  A    between atoms: _381  and  _383
REMARK  137  A    between atoms: _383  and  _384
REMARK  138  A    between atoms: _383  and  _386
REMARK  139  A    between atoms: _386  and  _387
REMARK  140  A    between atoms: _392  and  _394
REMARK  141  A    between atoms: _394  and  _395
REMARK  142  A    between atoms: _394  and  _397
REMARK  143  A    between atoms: _397  and  _398
REMARK  144  A    between atoms: _398  and  _399
REMARK  145  A    between atoms: _399  and  _400
REMARK                            x       y       z     vdW  Elec       q    Type
REMARK                         _______ _______ _______ _____ _____    ______ ____
ROOT
ATOM      1  O   HOH     1      17.670   6.379   7.337  0.00  0.00    +0.000 OA
ENDROOT
TORSDOF 0
REMARK  Name = ../refined-set-2016/1zge/1zge_pocket.pdb
REMARK  145 active torsions:
REMARK  status: ('A' for Active; 'I' for Inactive)
REMARK    1  A    between atoms: _1  and  _3
REMARK    2  A    between atoms: _3  and  _4
REMARK    3  A    between atoms: _3  and  _6
REMARK    4  A    between atoms: _6  and  _7
REMARK    5  A    between atoms: _17  and  _19
REMARK    6  A    between atoms: _19  and  _20
REMARK    7  A    between atoms: _19  and  _22
REMARK    8  A    between atoms: _22  and  _23
REMARK    9  A    between atoms: _28  and  _29
REMARK   10  A    between atoms: _31  and  _33
REMARK   11  A    between atoms: _33  and  _34
REMARK   12  A    between atoms: _33  and  _36
REMARK   13  A    between atoms: _36  and  _37
REMARK   14  A    between atoms: _40  and  _41
REMARK   15  A    between atoms: _46  and  _48
REMARK   16  A    between atoms: _48  and  _49
REMARK   17  A    between atoms: _48  and  _51
REMARK   18  A    between atoms: _51  and  _52
REMARK   19  A    between atoms: _57  and  _59
REMARK   20  A    between atoms: _59  and  _60
REMARK   21  A    between atoms: _59  and  _62
REMARK   22  A    between atoms: _62  and  _63
REMARK   23  A    between atoms: _68  and  _70
REMARK   24  A    between atoms: _70  and  _71
REMARK   25  A    between atoms: _74  and  _76
REMARK   26  A    between atoms: _76  and  _77
REMARK   27  A    between atoms: _76  and  _79
REMARK   28  A    between atoms: _79  and  _80
REMARK   29  A    between atoms: _85  and  _87
REMARK   30  A    between atoms: _87  and  _88
REMARK   31  A    between atoms: _87  and  _90
REMARK   32  A    between atoms: _90  and  _91
REMARK   33  A    between atoms: _94  and  _96
REMARK   34  A    between atoms: _96  and  _97
REMARK   35  A    between atoms: _96  and  _99
REMARK   36  A    between atoms: _99  and  _100
REMARK   37  A    between atoms: _100  and  _101
REMARK   38  A    between atoms: _106  and  _108
REMARK   39  A    between atoms: _108  and  _109
REMARK   40  A    between atoms: _108  and  _111
REMARK   41  A    between atoms: _111  and  _112
REMARK   42  A    between atoms: _118  and  _120
REMARK   43  A    between atoms: _131  and  _134
REMARK   44  A    between atoms: _134  and  _135
REMARK   45  A    between atoms: _143  and  _144
REMARK   46  A    between atoms: _152  and  _154
REMARK   47  A    between atoms: _154  and  _155
REMARK   48  A    between atoms: _154  and  _157
REMARK   49  A    between atoms: _157  and  _158
REMARK   50  A    between atoms: _158  and  _159
REMARK   51  A    between atoms: _162  and  _164
REMARK   52  A    between atoms: _164  and  _165
REMARK   53  A    between atoms: _164  and  _167
REMARK   54  A    between atoms: _167  and  _168
REMARK   55  A    between atoms: _173  and  _175
REMARK   56  A    between atoms: _175  and  _176
REMARK   57  A    between atoms: _175  and  _178
REMARK   58  A    between atoms: _178  and  _179
REMARK   59  A    between atoms: _179  and  _180
REMARK   60  A    between atoms: _183  and  _185
REMARK   61  A    between atoms: _185  and  _186
REMARK   62  A    between atoms: _185  and  _188
REMARK   63  A    between atoms: _188  and  _189
REMARK   64  A    between atoms: _192  and  _194
REMARK   65  A    between atoms: _194  and  _195
REMARK   66  A    between atoms: _194  and  _197
REMARK   67  A    between atoms: _197  and  _198
REMARK   68  A    between atoms: _199  and  ZN_409
REMARK   69  A    between atoms: _203  and  _205
REMARK   70  A    between atoms: _205  and  _206
REMARK   71  A    between atoms: _205  and  _208
REMARK   72  A    between atoms: _208  and  _209
REMARK   73  A    between atoms: _212  and  _214
REMARK   74  A    between atoms: _214  and  _215
REMARK   75  A    between atoms: _214  and  _217
REMARK   76  A    between atoms: _220  and  _222
REMARK   77  A    between atoms: _222  and  _223
REMARK   78  A    between atoms: _222  and  _225
REMARK   79  A    between atoms: _225  and  _226
REMARK   80  A    between atoms: _231  and  _233
REMARK   81  A    between atoms: _233  and  _234
REMARK   82  A    between atoms: _233  and  _236
REMARK   83  A    between atoms: _236  and  _237
REMARK   84  A    between atoms: _243  and  _245
REMARK   85  A    between atoms: _245  and  _246
REMARK   86  A    between atoms: _245  and  _248
REMARK   87  A    between atoms: _251  and  _253
REMARK   88  A    between atoms: _253  and  _254
REMARK   89  A    between atoms: _253  and  _256
REMARK   90  A    between atoms: _256  and  _257
REMARK   91  A    between atoms: _260  and  _262
REMARK   92  A    between atoms: _262  and  _263
REMARK   93  A    between atoms: _266  and  _268
REMARK   94  A    between atoms: _268  and  _269
REMARK   95  A    between atoms: _268  and  _271
REMARK   96  A    between atoms: _274  and  _276
REMARK   97  A    between atoms: _276  and  _277
REMARK   98  A    between atoms: _276  and  _279
REMARK   99  A    between atoms: _279  and  _280
REMARK  100  A    between atoms: _283  and  _285
REMARK  101  A    between atoms: _285  and  _286
REMARK  102  A    between atoms: _285  and  _288
REMARK  103  A    between atoms: _288  and  _289
REMARK  104  A    between atoms: _291  and  _293
REMARK  105  A    between atoms: _293  and  _294
REMARK  106  A    between atoms: _293  and  _296
REMARK  107  A    between atoms: _296  and  _297
REMARK  108  A    between atoms: _300  and  _302
REMARK  109  A    between atoms: _302  and  _303
REMARK  110  A    between atoms: _302  and  _305
REMARK  111  A    between atoms: _305  and  _306
REMARK  112  A    between atoms: _309  and  _311
REMARK  113  A    between atoms: _311  and  _312
REMARK  114  A    between atoms: _311  and  _314
REMARK  115  A    between atoms: _314  and  _315
REMARK  116  A    between atoms: _319  and  _320
REMARK  117  A    between atoms: _326  and  _327
REMARK  118  A    between atoms: _332  and  _334
REMARK  119  A    between atoms: _334  and  _335
REMARK  120  A    between atoms: _334  and  _337
REMARK  121  A    between atoms: _337  and  _338
REMARK  122  A    between atoms: _341  and  _343
REMARK  123  A    between atoms: _343  and  _344
REMARK  124  A    between atoms: _343  and  _346
REMARK  125  A    between atoms: _346  and  _347
REMARK  126  A    between atoms: _350  and  _352
REMARK  127  A    between atoms: _352  and  _353
REMARK  128  A    between atoms: _352  and  _355
REMARK  129  A    between atoms: _357  and  _359
REMARK  130  A    between atoms: _359  and  _360
REMARK  131  A    between atoms: _359  and  _362
REMARK  132  A    between atoms: _365  and  _367
REMARK  133  A    between atoms: _367  and  _368
REMARK  134  A    between atoms: _367  and  _370
REMARK  135  A    between atoms: _370  and  _371
REMARK  136  A    between atoms: _381  and  _383
REMARK  137  A    between atoms: _383  and  _384
REMARK  138  A    between atoms: _383  and  _386
REMARK  139  A    between atoms: _386  and  _387
REMARK  140  A    between atoms: _392  and  _394
REMARK  141  A    between atoms: _394  and  _395
REMARK  142  A    between atoms: _394  and  _397
REMARK  143  A    between atoms: _397  and  _398
REMARK  144  A    between atoms: _398  and  _399
REMARK  145  A    between atoms: _399  and  _400
REMARK                            x       y       z     vdW  Elec       q    Type
REMARK                         _______ _______ _______ _____ _____    ______ ____
ROOT
ATOM      1  O   HOH     1      17.314   7.161   9.990  0.00  0.00    +0.000 OA
ENDROOT
TORSDOF 0
REMARK  Name = ../refined-set-2016/1zge/1zge_pocket.pdb
REMARK  145 active torsions:
REMARK  status: ('A' for Active; 'I' for Inactive)
REMARK    1  A    between atoms: _1  and  _3
REMARK    2  A    between atoms: _3  and  _4
REMARK    3  A    between atoms: _3  and  _6
REMARK    4  A    between atoms: _6  and  _7
REMARK    5  A    between atoms: _17  and  _19
REMARK    6  A    between atoms: _19  and  _20
REMARK    7  A    between atoms: _19  and  _22
REMARK    8  A    between atoms: _22  and  _23
REMARK    9  A    between atoms: _28  and  _29
REMARK   10  A    between atoms: _31  and  _33
REMARK   11  A    between atoms: _33  and  _34
REMARK   12  A    between atoms: _33  and  _36
REMARK   13  A    between atoms: _36  and  _37
REMARK   14  A    between atoms: _40  and  _41
REMARK   15  A    between atoms: _46  and  _48
REMARK   16  A    between atoms: _48  and  _49
REMARK   17  A    between atoms: _48  and  _51
REMARK   18  A    between atoms: _51  and  _52
REMARK   19  A    between atoms: _57  and  _59
REMARK   20  A    between atoms: _59  and  _60
REMARK   21  A    between atoms: _59  and  _62
REMARK   22  A    between atoms: _62  and  _63
REMARK   23  A    between atoms: _68  and  _70
REMARK   24  A    between atoms: _70  and  _71
REMARK   25  A    between atoms: _74  and  _76
REMARK   26  A    between atoms: _76  and  _77
REMARK   27  A    between atoms: _76  and  _79
REMARK   28  A    between atoms: _79  and  _80
REMARK   29  A    between atoms: _85  and  _87
REMARK   30  A    between atoms: _87  and  _88
REMARK   31  A    between atoms: _87  and  _90
REMARK   32  A    between atoms: _90  and  _91
REMARK   33  A    between atoms: _94  and  _96
REMARK   34  A    between atoms: _96  and  _97
REMARK   35  A    between atoms: _96  and  _99
REMARK   36  A    between atoms: _99  and  _100
REMARK   37  A    between atoms: _100  and  _101
REMARK   38  A    between atoms: _106  and  _108
REMARK   39  A    between atoms: _108  and  _109
REMARK   40  A    between atoms: _108  and  _111
REMARK   41  A    between atoms: _111  and  _112
REMARK   42  A    between atoms: _118  and  _120
REMARK   43  A    between atoms: _131  and  _134
REMARK   44  A    between atoms: _134  and  _135
REMARK   45  A    between atoms: _143  and  _144
REMARK   46  A    between atoms: _152  and  _154
REMARK   47  A    between atoms: _154  and  _155
REMARK   48  A    between atoms: _154  and  _157
REMARK   49  A    between atoms: _157  and  _158
REMARK   50  A    between atoms: _158  and  _159
REMARK   51  A    between atoms: _162  and  _164
REMARK   52  A    between atoms: _164  and  _165
REMARK   53  A    between atoms: _164  and  _167
REMARK   54  A    between atoms: _167  and  _168
REMARK   55  A    between atoms: _173  and  _175
REMARK   56  A    between atoms: _175  and  _176
REMARK   57  A    between atoms: _175  and  _178
REMARK   58  A    between atoms: _178  and  _179
REMARK   59  A    between atoms: _179  and  _180
REMARK   60  A    between atoms: _183  and  _185
REMARK   61  A    between atoms: _185  and  _186
REMARK   62  A    between atoms: _185  and  _188
REMARK   63  A    between atoms: _188  and  _189
REMARK   64  A    between atoms: _192  and  _194
REMARK   65  A    between atoms: _194  and  _195
REMARK   66  A    between atoms: _194  and  _197
REMARK   67  A    between atoms: _197  and  _198
REMARK   68  A    between atoms: _199  and  ZN_409
REMARK   69  A    between atoms: _203  and  _205
REMARK   70  A    between atoms: _205  and  _206
REMARK   71  A    between atoms: _205  and  _208
REMARK   72  A    between atoms: _208  and  _209
REMARK   73  A    between atoms: _212  and  _214
REMARK   74  A    between atoms: _214  and  _215
REMARK   75  A    between atoms: _214  and  _217
REMARK   76  A    between atoms: _220  and  _222
REMARK   77  A    between atoms: _222  and  _223
REMARK   78  A    between atoms: _222  and  _225
REMARK   79  A    between atoms: _225  and  _226
REMARK   80  A    between atoms: _231  and  _233
REMARK   81  A    between atoms: _233  and  _234
REMARK   82  A    between atoms: _233  and  _236
REMARK   83  A    between atoms: _236  and  _237
REMARK   84  A    between atoms: _243  and  _245
REMARK   85  A    between atoms: _245  and  _246
REMARK   86  A    between atoms: _245  and  _248
REMARK   87  A    between atoms: _251  and  _253
REMARK   88  A    between atoms: _253  and  _254
REMARK   89  A    between atoms: _253  and  _256
REMARK   90  A    between atoms: _256  and  _257
REMARK   91  A    between atoms: _260  and  _262
REMARK   92  A    between atoms: _262  and  _263
REMARK   93  A    between atoms: _266  and  _268
REMARK   94  A    between atoms: _268  and  _269
REMARK   95  A    between atoms: _268  and  _271
REMARK   96  A    between atoms: _274  and  _276
REMARK   97  A    between atoms: _276  and  _277
REMARK   98  A    between atoms: _276  and  _279
REMARK   99  A    between atoms: _279  and  _280
REMARK  100  A    between atoms: _283  and  _285
REMARK  101  A    between atoms: _285  and  _286
REMARK  102  A    between atoms: _285  and  _288
REMARK  103  A    between atoms: _288  and  _289
REMARK  104  A    between atoms: _291  and  _293
REMARK  105  A    between atoms: _293  and  _294
REMARK  106  A    between atoms: _293  and  _296
REMARK  107  A    between atoms: _296  and  _297
REMARK  108  A    between atoms: _300  and  _302
REMARK  109  A    between atoms: _302  and  _303
REMARK  110  A    between atoms: _302  and  _305
REMARK  111  A    between atoms: _305  and  _306
REMARK  112  A    between atoms: _309  and  _311
REMARK  113  A    between atoms: _311  and  _312
REMARK  114  A    between atoms: _311  and  _314
REMARK  115  A    between atoms: _314  and  _315
REMARK  116  A    between atoms: _319  and  _320
REMARK  117  A    between atoms: _326  and  _327
REMARK  118  A    between atoms: _332  and  _334
REMARK  119  A    between atoms: _334  and  _335
REMARK  120  A    between atoms: _334  and  _337
REMARK  121  A    between atoms: _337  and  _338
REMARK  122  A    between atoms: _341  and  _343
REMARK  123  A    between atoms: _343  and  _344
REMARK  124  A    between atoms: _343  and  _346
REMARK  125  A    between atoms: _346  and  _347
REMARK  126  A    between atoms: _350  and  _352
REMARK  127  A    between atoms: _352  and  _353
REMARK  128  A    between atoms: _352  and  _355
REMARK  129  A    between atoms: _357  and  _359
REMARK  130  A    between atoms: _359  and  _360
REMARK  131  A    between atoms: _359  and  _362
REMARK  132  A    between atoms: _365  and  _367
REMARK  133  A    between atoms: _367  and  _368
REMARK  134  A    between atoms: _367  and  _370
REMARK  135  A    between atoms: _370  and  _371
REMARK  136  A    between atoms: _381  and  _383
REMARK  137  A    between atoms: _383  and  _384
REMARK  138  A    between atoms: _383  and  _386
REMARK  139  A    between atoms: _386  and  _387
REMARK  140  A    between atoms: _392  and  _394
REMARK  141  A    between atoms: _394  and  _395
REMARK  142  A    between atoms: _394  and  _397
REMARK  143  A    between atoms: _397  and  _398
REMARK  144  A    between atoms: _398  and  _399
REMARK  145  A    between atoms: _399  and  _400
REMARK                            x       y       z     vdW  Elec       q    Type
REMARK                         _______ _______ _______ _____ _____    ______ ____
ROOT
ATOM      1  O   HOH     1      24.283   4.887   8.046  0.00  0.00    +0.000 OA
ENDROOT
TORSDOF 0
REMARK  Name = ../refined-set-2016/1zge/1zge_pocket.pdb
REMARK  145 active torsions:
REMARK  status: ('A' for Active; 'I' for Inactive)
REMARK    1  A    between atoms: _1  and  _3
REMARK    2  A    between atoms: _3  and  _4
REMARK    3  A    between atoms: _3  and  _6
REMARK    4  A    between atoms: _6  and  _7
REMARK    5  A    between atoms: _17  and  _19
REMARK    6  A    between atoms: _19  and  _20
REMARK    7  A    between atoms: _19  and  _22
REMARK    8  A    between atoms: _22  and  _23
REMARK    9  A    between atoms: _28  and  _29
REMARK   10  A    between atoms: _31  and  _33
REMARK   11  A    between atoms: _33  and  _34
REMARK   12  A    between atoms: _33  and  _36
REMARK   13  A    between atoms: _36  and  _37
REMARK   14  A    between atoms: _40  and  _41
REMARK   15  A    between atoms: _46  and  _48
REMARK   16  A    between atoms: _48  and  _49
REMARK   17  A    between atoms: _48  and  _51
REMARK   18  A    between atoms: _51  and  _52
REMARK   19  A    between atoms: _57  and  _59
REMARK   20  A    between atoms: _59  and  _60
REMARK   21  A    between atoms: _59  and  _62
REMARK   22  A    between atoms: _62  and  _63
REMARK   23  A    between atoms: _68  and  _70
REMARK   24  A    between atoms: _70  and  _71
REMARK   25  A    between atoms: _74  and  _76
REMARK   26  A    between atoms: _76  and  _77
REMARK   27  A    between atoms: _76  and  _79
REMARK   28  A    between atoms: _79  and  _80
REMARK   29  A    between atoms: _85  and  _87
REMARK   30  A    between atoms: _87  and  _88
REMARK   31  A    between atoms: _87  and  _90
REMARK   32  A    between atoms: _90  and  _91
REMARK   33  A    between atoms: _94  and  _96
REMARK   34  A    between atoms: _96  and  _97
REMARK   35  A    between atoms: _96  and  _99
REMARK   36  A    between atoms: _99  and  _100
REMARK   37  A    between atoms: _100  and  _101
REMARK   38  A    between atoms: _106  and  _108
REMARK   39  A    between atoms: _108  and  _109
REMARK   40  A    between atoms: _108  and  _111
REMARK   41  A    between atoms: _111  and  _112
REMARK   42  A    between atoms: _118  and  _120
REMARK   43  A    between atoms: _131  and  _134
REMARK   44  A    between atoms: _134  and  _135
REMARK   45  A    between atoms: _143  and  _144
REMARK   46  A    between atoms: _152  and  _154
REMARK   47  A    between atoms: _154  and  _155
REMARK   48  A    between atoms: _154  and  _157
REMARK   49  A    between atoms: _157  and  _158
REMARK   50  A    between atoms: _158  and  _159
REMARK   51  A    between atoms: _162  and  _164
REMARK   52  A    between atoms: _164  and  _165
REMARK   53  A    between atoms: _164  and  _167
REMARK   54  A    between atoms: _167  and  _168
REMARK   55  A    between atoms: _173  and  _175
REMARK   56  A    between atoms: _175  and  _176
REMARK   57  A    between atoms: _175  and  _178
REMARK   58  A    between atoms: _178  and  _179
REMARK   59  A    between atoms: _179  and  _180
REMARK   60  A    between atoms: _183  and  _185
REMARK   61  A    between atoms: _185  and  _186
REMARK   62  A    between atoms: _185  and  _188
REMARK   63  A    between atoms: _188  and  _189
REMARK   64  A    between atoms: _192  and  _194
REMARK   65  A    between atoms: _194  and  _195
REMARK   66  A    between atoms: _194  and  _197
REMARK   67  A    between atoms: _197  and  _198
REMARK   68  A    between atoms: _199  and  ZN_409
REMARK   69  A    between atoms: _203  and  _205
REMARK   70  A    between atoms: _205  and  _206
REMARK   71  A    between atoms: _205  and  _208
REMARK   72  A    between atoms: _208  and  _209
REMARK   73  A    between atoms: _212  and  _214
REMARK   74  A    between atoms: _214  and  _215
REMARK   75  A    between atoms: _214  and  _217
REMARK   76  A    between atoms: _220  and  _222
REMARK   77  A    between atoms: _222  and  _223
REMARK   78  A    between atoms: _222  and  _225
REMARK   79  A    between atoms: _225  and  _226
REMARK   80  A    between atoms: _231  and  _233
REMARK   81  A    between atoms: _233  and  _234
REMARK   82  A    between atoms: _233  and  _236
REMARK   83  A    between atoms: _236  and  _237
REMARK   84  A    between atoms: _243  and  _245
REMARK   85  A    between atoms: _245  and  _246
REMARK   86  A    between atoms: _245  and  _248
REMARK   87  A    between atoms: _251  and  _253
REMARK   88  A    between atoms: _253  and  _254
REMARK   89  A    between atoms: _253  and  _256
REMARK   90  A    between atoms: _256  and  _257
REMARK   91  A    between atoms: _260  and  _262
REMARK   92  A    between atoms: _262  and  _263
REMARK   93  A    between atoms: _266  and  _268
REMARK   94  A    between atoms: _268  and  _269
REMARK   95  A    between atoms: _268  and  _271
REMARK   96  A    between atoms: _274  and  _276
REMARK   97  A    between atoms: _276  and  _277
REMARK   98  A    between atoms: _276  and  _279
REMARK   99  A    between atoms: _279  and  _280
REMARK  100  A    between atoms: _283  and  _285
REMARK  101  A    between atoms: _285  and  _286
REMARK  102  A    between atoms: _285  and  _288
REMARK  103  A    between atoms: _288  and  _289
REMARK  104  A    between atoms: _291  and  _293
REMARK  105  A    between atoms: _293  and  _294
REMARK  106  A    between atoms: _293  and  _296
REMARK  107  A    between atoms: _296  and  _297
REMARK  108  A    between atoms: _300  and  _302
REMARK  109  A    between atoms: _302  and  _303
REMARK  110  A    between atoms: _302  and  _305
REMARK  111  A    between atoms: _305  and  _306
REMARK  112  A    between atoms: _309  and  _311
REMARK  113  A    between atoms: _311  and  _312
REMARK  114  A    between atoms: _311  and  _314
REMARK  115  A    between atoms: _314  and  _315
REMARK  116  A    between atoms: _319  and  _320
REMARK  117  A    between atoms: _326  and  _327
REMARK  118  A    between atoms: _332  and  _334
REMARK  119  A    between atoms: _334  and  _335
REMARK  120  A    between atoms: _334  and  _337
REMARK  121  A    between atoms: _337  and  _338
REMARK  122  A    between atoms: _341  and  _343
REMARK  123  A    between atoms: _343  and  _344
REMARK  124  A    between atoms: _343  and  _346
REMARK  125  A    between atoms: _346  and  _347
REMARK  126  A    between atoms: _350  and  _352
REMARK  127  A    between atoms: _352  and  _353
REMARK  128  A    between atoms: _352  and  _355
REMARK  129  A    between atoms: _357  and  _359
REMARK  130  A    between atoms: _359  and  _360
REMARK  131  A    between atoms: _359  and  _362
REMARK  132  A    between atoms: _365  and  _367
REMARK  133  A    between atoms: _367  and  _368
REMARK  134  A    between atoms: _367  and  _370
REMARK  135  A    between atoms: _370  and  _371
REMARK  136  A    between atoms: _381  and  _383
REMARK  137  A    between atoms: _383  and  _384
REMARK  138  A    between atoms: _383  and  _386
REMARK  139  A    between atoms: _386  and  _387
REMARK  140  A    between atoms: _392  and  _394
REMARK  141  A    between atoms: _394  and  _395
REMARK  142  A    between atoms: _394  and  _397
REMARK  143  A    between atoms: _397  and  _398
REMARK  144  A    between atoms: _398  and  _399
REMARK  145  A    between atoms: _399  and  _400
REMARK                            x       y       z     vdW  Elec       q    Type
REMARK                         _______ _______ _______ _____ _____    ______ ____
ROOT
ATOM      1  O   HOH     1      24.651   5.887  10.513  0.00  0.00    +0.000 OA
ENDROOT
TORSDOF 0
REMARK  Name = ../refined-set-2016/1zge/1zge_pocket.pdb
REMARK  145 active torsions:
REMARK  status: ('A' for Active; 'I' for Inactive)
REMARK    1  A    between atoms: _1  and  _3
REMARK    2  A    between atoms: _3  and  _4
REMARK    3  A    between atoms: _3  and  _6
REMARK    4  A    between atoms: _6  and  _7
REMARK    5  A    between atoms: _17  and  _19
REMARK    6  A    between atoms: _19  and  _20
REMARK    7  A    between atoms: _19  and  _22
REMARK    8  A    between atoms: _22  and  _23
REMARK    9  A    between atoms: _28  and  _29
REMARK   10  A    between atoms: _31  and  _33
REMARK   11  A    between atoms: _33  and  _34
REMARK   12  A    between atoms: _33  and  _36
REMARK   13  A    between atoms: _36  and  _37
REMARK   14  A    between atoms: _40  and  _41
REMARK   15  A    between atoms: _46  and  _48
REMARK   16  A    between atoms: _48  and  _49
REMARK   17  A    between atoms: _48  and  _51
REMARK   18  A    between atoms: _51  and  _52
REMARK   19  A    between atoms: _57  and  _59
REMARK   20  A    between atoms: _59  and  _60
REMARK   21  A    between atoms: _59  and  _62
REMARK   22  A    between atoms: _62  and  _63
REMARK   23  A    between atoms: _68  and  _70
REMARK   24  A    between atoms: _70  and  _71
REMARK   25  A    between atoms: _74  and  _76
REMARK   26  A    between atoms: _76  and  _77
REMARK   27  A    between atoms: _76  and  _79
REMARK   28  A    between atoms: _79  and  _80
REMARK   29  A    between atoms: _85  and  _87
REMARK   30  A    between atoms: _87  and  _88
REMARK   31  A    between atoms: _87  and  _90
REMARK   32  A    between atoms: _90  and  _91
REMARK   33  A    between atoms: _94  and  _96
REMARK   34  A    between atoms: _96  and  _97
REMARK   35  A    between atoms: _96  and  _99
REMARK   36  A    between atoms: _99  and  _100
REMARK   37  A    between atoms: _100  and  _101
REMARK   38  A    between atoms: _106  and  _108
REMARK   39  A    between atoms: _108  and  _109
REMARK   40  A    between atoms: _108  and  _111
REMARK   41  A    between atoms: _111  and  _112
REMARK   42  A    between atoms: _118  and  _120
REMARK   43  A    between atoms: _131  and  _134
REMARK   44  A    between atoms: _134  and  _135
REMARK   45  A    between atoms: _143  and  _144
REMARK   46  A    between atoms: _152  and  _154
REMARK   47  A    between atoms: _154  and  _155
REMARK   48  A    between atoms: _154  and  _157
REMARK   49  A    between atoms: _157  and  _158
REMARK   50  A    between atoms: _158  and  _159
REMARK   51  A    between atoms: _162  and  _164
REMARK   52  A    between atoms: _164  and  _165
REMARK   53  A    between atoms: _164  and  _167
REMARK   54  A    between atoms: _167  and  _168
REMARK   55  A    between atoms: _173  and  _175
REMARK   56  A    between atoms: _175  and  _176
REMARK   57  A    between atoms: _175  and  _178
REMARK   58  A    between atoms: _178  and  _179
REMARK   59  A    between atoms: _179  and  _180
REMARK   60  A    between atoms: _183  and  _185
REMARK   61  A    between atoms: _185  and  _186
REMARK   62  A    between atoms: _185  and  _188
REMARK   63  A    between atoms: _188  and  _189
REMARK   64  A    between atoms: _192  and  _194
REMARK   65  A    between atoms: _194  and  _195
REMARK   66  A    between atoms: _194  and  _197
REMARK   67  A    between atoms: _197  and  _198
REMARK   68  A    between atoms: _199  and  ZN_409
REMARK   69  A    between atoms: _203  and  _205
REMARK   70  A    between atoms: _205  and  _206
REMARK   71  A    between atoms: _205  and  _208
REMARK   72  A    between atoms: _208  and  _209
REMARK   73  A    between atoms: _212  and  _214
REMARK   74  A    between atoms: _214  and  _215
REMARK   75  A    between atoms: _214  and  _217
REMARK   76  A    between atoms: _220  and  _222
REMARK   77  A    between atoms: _222  and  _223
REMARK   78  A    between atoms: _222  and  _225
REMARK   79  A    between atoms: _225  and  _226
REMARK   80  A    between atoms: _231  and  _233
REMARK   81  A    between atoms: _233  and  _234
REMARK   82  A    between atoms: _233  and  _236
REMARK   83  A    between atoms: _236  and  _237
REMARK   84  A    between atoms: _243  and  _245
REMARK   85  A    between atoms: _245  and  _246
REMARK   86  A    between atoms: _245  and  _248
REMARK   87  A    between atoms: _251  and  _253
REMARK   88  A    between atoms: _253  and  _254
REMARK   89  A    between atoms: _253  and  _256
REMARK   90  A    between atoms: _256  and  _257
REMARK   91  A    between atoms: _260  and  _262
REMARK   92  A    between atoms: _262  and  _263
REMARK   93  A    between atoms: _266  and  _268
REMARK   94  A    between atoms: _268  and  _269
REMARK   95  A    between atoms: _268  and  _271
REMARK   96  A    between atoms: _274  and  _276
REMARK   97  A    between atoms: _276  and  _277
REMARK   98  A    between atoms: _276  and  _279
REMARK   99  A    between atoms: _279  and  _280
REMARK  100  A    between atoms: _283  and  _285
REMARK  101  A    between atoms: _285  and  _286
REMARK  102  A    between atoms: _285  and  _288
REMARK  103  A    between atoms: _288  and  _289
REMARK  104  A    between atoms: _291  and  _293
REMARK  105  A    between atoms: _293  and  _294
REMARK  106  A    between atoms: _293  and  _296
REMARK  107  A    between atoms: _296  and  _297
REMARK  108  A    between atoms: _300  and  _302
REMARK  109  A    between atoms: _302  and  _303
REMARK  110  A    between atoms: _302  and  _305
REMARK  111  A    between atoms: _305  and  _306
REMARK  112  A    between atoms: _309  and  _311
REMARK  113  A    between atoms: _311  and  _312
REMARK  114  A    between atoms: _311  and  _314
REMARK  115  A    between atoms: _314  and  _315
REMARK  116  A    between atoms: _319  and  _320
REMARK  117  A    between atoms: _326  and  _327
REMARK  118  A    between atoms: _332  and  _334
REMARK  119  A    between atoms: _334  and  _335
REMARK  120  A    between atoms: _334  and  _337
REMARK  121  A    between atoms: _337  and  _338
REMARK  122  A    between atoms: _341  and  _343
REMARK  123  A    between atoms: _343  and  _344
REMARK  124  A    between atoms: _343  and  _346
REMARK  125  A    between atoms: _346  and  _347
REMARK  126  A    between atoms: _350  and  _352
REMARK  127  A    between atoms: _352  and  _353
REMARK  128  A    between atoms: _352  and  _355
REMARK  129  A    between atoms: _357  and  _359
REMARK  130  A    between atoms: _359  and  _360
REMARK  131  A    between atoms: _359  and  _362
REMARK  132  A    between atoms: _365  and  _367
REMARK  133  A    between atoms: _367  and  _368
REMARK  134  A    between atoms: _367  and  _370
REMARK  135  A    between atoms: _370  and  _371
REMARK  136  A    between atoms: _381  and  _383
REMARK  137  A    between atoms: _383  and  _384
REMARK  138  A    between atoms: _383  and  _386
REMARK  139  A    between atoms: _386  and  _387
REMARK  140  A    between atoms: _392  and  _394
REMARK  141  A    between atoms: _394  and  _395
REMARK  142  A    between atoms: _394  and  _397
REMARK  143  A    between atoms: _397  and  _398
REMARK  144  A    between atoms: _398  and  _399
REMARK  145  A    between atoms: _399  and  _400
REMARK                            x       y       z     vdW  Elec       q    Type
REMARK                         _______ _______ _______ _____ _____    ______ ____
ROOT
ATOM      1  O   HOH     1      20.660   5.199  10.363  0.00  0.00    +0.000 OA
ENDROOT
TORSDOF 0
REMARK  Name = ../refined-set-2016/1zge/1zge_pocket.pdb
REMARK  145 active torsions:
REMARK  status: ('A' for Active; 'I' for Inactive)
REMARK    1  A    between atoms: _1  and  _3
REMARK    2  A    between atoms: _3  and  _4
REMARK    3  A    between atoms: _3  and  _6
REMARK    4  A    between atoms: _6  and  _7
REMARK    5  A    between atoms: _17  and  _19
REMARK    6  A    between atoms: _19  and  _20
REMARK    7  A    between atoms: _19  and  _22
REMARK    8  A    between atoms: _22  and  _23
REMARK    9  A    between atoms: _28  and  _29
REMARK   10  A    between atoms: _31  and  _33
REMARK   11  A    between atoms: _33  and  _34
REMARK   12  A    between atoms: _33  and  _36
REMARK   13  A    between atoms: _36  and  _37
REMARK   14  A    between atoms: _40  and  _41
REMARK   15  A    between atoms: _46  and  _48
REMARK   16  A    between atoms: _48  and  _49
REMARK   17  A    between atoms: _48  and  _51
REMARK   18  A    between atoms: _51  and  _52
REMARK   19  A    between atoms: _57  and  _59
REMARK   20  A    between atoms: _59  and  _60
REMARK   21  A    between atoms: _59  and  _62
REMARK   22  A    between atoms: _62  and  _63
REMARK   23  A    between atoms: _68  and  _70
REMARK   24  A    between atoms: _70  and  _71
REMARK   25  A    between atoms: _74  and  _76
REMARK   26  A    between atoms: _76  and  _77
REMARK   27  A    between atoms: _76  and  _79
REMARK   28  A    between atoms: _79  and  _80
REMARK   29  A    between atoms: _85  and  _87
REMARK   30  A    between atoms: _87  and  _88
REMARK   31  A    between atoms: _87  and  _90
REMARK   32  A    between atoms: _90  and  _91
REMARK   33  A    between atoms: _94  and  _96
REMARK   34  A    between atoms: _96  and  _97
REMARK   35  A    between atoms: _96  and  _99
REMARK   36  A    between atoms: _99  and  _100
REMARK   37  A    between atoms: _100  and  _101
REMARK   38  A    between atoms: _106  and  _108
REMARK   39  A    between atoms: _108  and  _109
REMARK   40  A    between atoms: _108  and  _111
REMARK   41  A    between atoms: _111  and  _112
REMARK   42  A    between atoms: _118  and  _120
REMARK   43  A    between atoms: _131  and  _134
REMARK   44  A    between atoms: _134  and  _135
REMARK   45  A    between atoms: _143  and  _144
REMARK   46  A    between atoms: _152  and  _154
REMARK   47  A    between atoms: _154  and  _155
REMARK   48  A    between atoms: _154  and  _157
REMARK   49  A    between atoms: _157  and  _158
REMARK   50  A    between atoms: _158  and  _159
REMARK   51  A    between atoms: _162  and  _164
REMARK   52  A    between atoms: _164  and  _165
REMARK   53  A    between atoms: _164  and  _167
REMARK   54  A    between atoms: _167  and  _168
REMARK   55  A    between atoms: _173  and  _175
REMARK   56  A    between atoms: _175  and  _176
REMARK   57  A    between atoms: _175  and  _178
REMARK   58  A    between atoms: _178  and  _179
REMARK   59  A    between atoms: _179  and  _180
REMARK   60  A    between atoms: _183  and  _185
REMARK   61  A    between atoms: _185  and  _186
REMARK   62  A    between atoms: _185  and  _188
REMARK   63  A    between atoms: _188  and  _189
REMARK   64  A    between atoms: _192  and  _194
REMARK   65  A    between atoms: _194  and  _195
REMARK   66  A    between atoms: _194  and  _197
REMARK   67  A    between atoms: _197  and  _198
REMARK   68  A    between atoms: _199  and  ZN_409
REMARK   69  A    between atoms: _203  and  _205
REMARK   70  A    between atoms: _205  and  _206
REMARK   71  A    between atoms: _205  and  _208
REMARK   72  A    between atoms: _208  and  _209
REMARK   73  A    between atoms: _212  and  _214
REMARK   74  A    between atoms: _214  and  _215
REMARK   75  A    between atoms: _214  and  _217
REMARK   76  A    between atoms: _220  and  _222
REMARK   77  A    between atoms: _222  and  _223
REMARK   78  A    between atoms: _222  and  _225
REMARK   79  A    between atoms: _225  and  _226
REMARK   80  A    between atoms: _231  and  _233
REMARK   81  A    between atoms: _233  and  _234
REMARK   82  A    between atoms: _233  and  _236
REMARK   83  A    between atoms: _236  and  _237
REMARK   84  A    between atoms: _243  and  _245
REMARK   85  A    between atoms: _245  and  _246
REMARK   86  A    between atoms: _245  and  _248
REMARK   87  A    between atoms: _251  and  _253
REMARK   88  A    between atoms: _253  and  _254
REMARK   89  A    between atoms: _253  and  _256
REMARK   90  A    between atoms: _256  and  _257
REMARK   91  A    between atoms: _260  and  _262
REMARK   92  A    between atoms: _262  and  _263
REMARK   93  A    between atoms: _266  and  _268
REMARK   94  A    between atoms: _268  and  _269
REMARK   95  A    between atoms: _268  and  _271
REMARK   96  A    between atoms: _274  and  _276
REMARK   97  A    between atoms: _276  and  _277
REMARK   98  A    between atoms: _276  and  _279
REMARK   99  A    between atoms: _279  and  _280
REMARK  100  A    between atoms: _283  and  _285
REMARK  101  A    between atoms: _285  and  _286
REMARK  102  A    between atoms: _285  and  _288
REMARK  103  A    between atoms: _288  and  _289
REMARK  104  A    between atoms: _291  and  _293
REMARK  105  A    between atoms: _293  and  _294
REMARK  106  A    between atoms: _293  and  _296
REMARK  107  A    between atoms: _296  and  _297
REMARK  108  A    between atoms: _300  and  _302
REMARK  109  A    between atoms: _302  and  _303
REMARK  110  A    between atoms: _302  and  _305
REMARK  111  A    between atoms: _305  and  _306
REMARK  112  A    between atoms: _309  and  _311
REMARK  113  A    between atoms: _311  and  _312
REMARK  114  A    between atoms: _311  and  _314
REMARK  115  A    between atoms: _314  and  _315
REMARK  116  A    between atoms: _319  and  _320
REMARK  117  A    between atoms: _326  and  _327
REMARK  118  A    between atoms: _332  and  _334
REMARK  119  A    between atoms: _334  and  _335
REMARK  120  A    between atoms: _334  and  _337
REMARK  121  A    between atoms: _337  and  _338
REMARK  122  A    between atoms: _341  and  _343
REMARK  123  A    between atoms: _343  and  _344
REMARK  124  A    between atoms: _343  and  _346
REMARK  125  A    between atoms: _346  and  _347
REMARK  126  A    between atoms: _350  and  _352
REMARK  127  A    between atoms: _352  and  _353
REMARK  128  A    between atoms: _352  and  _355
REMARK  129  A    between atoms: _357  and  _359
REMARK  130  A    between atoms: _359  and  _360
REMARK  131  A    between atoms: _359  and  _362
REMARK  132  A    between atoms: _365  and  _367
REMARK  133  A    between atoms: _367  and  _368
REMARK  134  A    between atoms: _367  and  _370
REMARK  135  A    between atoms: _370  and  _371
REMARK  136  A    between atoms: _381  and  _383
REMARK  137  A    between atoms: _383  and  _384
REMARK  138  A    between atoms: _383  and  _386
REMARK  139  A    between atoms: _386  and  _387
REMARK  140  A    between atoms: _392  and  _394
REMARK  141  A    between atoms: _394  and  _395
REMARK  142  A    between atoms: _394  and  _397
REMARK  143  A    between atoms: _397  and  _398
REMARK  144  A    between atoms: _398  and  _399
REMARK  145  A    between atoms: _399  and  _400
REMARK                            x       y       z     vdW  Elec       q    Type
REMARK                         _______ _______ _______ _____ _____    ______ ____
ROOT
ATOM      1  O   HOH     1      21.989   6.280  12.310  0.00  0.00    +0.000 OA
ENDROOT
TORSDOF 0
REMARK  Name = ../refined-set-2016/1zge/1zge_pocket.pdb
REMARK  145 active torsions:
REMARK  status: ('A' for Active; 'I' for Inactive)
REMARK    1  A    between atoms: _1  and  _3
REMARK    2  A    between atoms: _3  and  _4
REMARK    3  A    between atoms: _3  and  _6
REMARK    4  A    between atoms: _6  and  _7
REMARK    5  A    between atoms: _17  and  _19
REMARK    6  A    between atoms: _19  and  _20
REMARK    7  A    between atoms: _19  and  _22
REMARK    8  A    between atoms: _22  and  _23
REMARK    9  A    between atoms: _28  and  _29
REMARK   10  A    between atoms: _31  and  _33
REMARK   11  A    between atoms: _33  and  _34
REMARK   12  A    between atoms: _33  and  _36
REMARK   13  A    between atoms: _36  and  _37
REMARK   14  A    between atoms: _40  and  _41
REMARK   15  A    between atoms: _46  and  _48
REMARK   16  A    between atoms: _48  and  _49
REMARK   17  A    between atoms: _48  and  _51
REMARK   18  A    between atoms: _51  and  _52
REMARK   19  A    between atoms: _57  and  _59
REMARK   20  A    between atoms: _59  and  _60
REMARK   21  A    between atoms: _59  and  _62
REMARK   22  A    between atoms: _62  and  _63
REMARK   23  A    between atoms: _68  and  _70
REMARK   24  A    between atoms: _70  and  _71
REMARK   25  A    between atoms: _74  and  _76
REMARK   26  A    between atoms: _76  and  _77
REMARK   27  A    between atoms: _76  and  _79
REMARK   28  A    between atoms: _79  and  _80
REMARK   29  A    between atoms: _85  and  _87
REMARK   30  A    between atoms: _87  and  _88
REMARK   31  A    between atoms: _87  and  _90
REMARK   32  A    between atoms: _90  and  _91
REMARK   33  A    between atoms: _94  and  _96
REMARK   34  A    between atoms: _96  and  _97
REMARK   35  A    between atoms: _96  and  _99
REMARK   36  A    between atoms: _99  and  _100
REMARK   37  A    between atoms: _100  and  _101
REMARK   38  A    between atoms: _106  and  _108
REMARK   39  A    between atoms: _108  and  _109
REMARK   40  A    between atoms: _108  and  _111
REMARK   41  A    between atoms: _111  and  _112
REMARK   42  A    between atoms: _118  and  _120
REMARK   43  A    between atoms: _131  and  _134
REMARK   44  A    between atoms: _134  and  _135
REMARK   45  A    between atoms: _143  and  _144
REMARK   46  A    between atoms: _152  and  _154
REMARK   47  A    between atoms: _154  and  _155
REMARK   48  A    between atoms: _154  and  _157
REMARK   49  A    between atoms: _157  and  _158
REMARK   50  A    between atoms: _158  and  _159
REMARK   51  A    between atoms: _162  and  _164
REMARK   52  A    between atoms: _164  and  _165
REMARK   53  A    between atoms: _164  and  _167
REMARK   54  A    between atoms: _167  and  _168
REMARK   55  A    between atoms: _173  and  _175
REMARK   56  A    between atoms: _175  and  _176
REMARK   57  A    between atoms: _175  and  _178
REMARK   58  A    between atoms: _178  and  _179
REMARK   59  A    between atoms: _179  and  _180
REMARK   60  A    between atoms: _183  and  _185
REMARK   61  A    between atoms: _185  and  _186
REMARK   62  A    between atoms: _185  and  _188
REMARK   63  A    between atoms: _188  and  _189
REMARK   64  A    between atoms: _192  and  _194
REMARK   65  A    between atoms: _194  and  _195
REMARK   66  A    between atoms: _194  and  _197
REMARK   67  A    between atoms: _197  and  _198
REMARK   68  A    between atoms: _199  and  ZN_409
REMARK   69  A    between atoms: _203  and  _205
REMARK   70  A    between atoms: _205  and  _206
REMARK   71  A    between atoms: _205  and  _208
REMARK   72  A    between atoms: _208  and  _209
REMARK   73  A    between atoms: _212  and  _214
REMARK   74  A    between atoms: _214  and  _215
REMARK   75  A    between atoms: _214  and  _217
REMARK   76  A    between atoms: _220  and  _222
REMARK   77  A    between atoms: _222  and  _223
REMARK   78  A    between atoms: _222  and  _225
REMARK   79  A    between atoms: _225  and  _226
REMARK   80  A    between atoms: _231  and  _233
REMARK   81  A    between atoms: _233  and  _234
REMARK   82  A    between atoms: _233  and  _236
REMARK   83  A    between atoms: _236  and  _237
REMARK   84  A    between atoms: _243  and  _245
REMARK   85  A    between atoms: _245  and  _246
REMARK   86  A    between atoms: _245  and  _248
REMARK   87  A    between atoms: _251  and  _253
REMARK   88  A    between atoms: _253  and  _254
REMARK   89  A    between atoms: _253  and  _256
REMARK   90  A    between atoms: _256  and  _257
REMARK   91  A    between atoms: _260  and  _262
REMARK   92  A    between atoms: _262  and  _263
REMARK   93  A    between atoms: _266  and  _268
REMARK   94  A    between atoms: _268  and  _269
REMARK   95  A    between atoms: _268  and  _271
REMARK   96  A    between atoms: _274  and  _276
REMARK   97  A    between atoms: _276  and  _277
REMARK   98  A    between atoms: _276  and  _279
REMARK   99  A    between atoms: _279  and  _280
REMARK  100  A    between atoms: _283  and  _285
REMARK  101  A    between atoms: _285  and  _286
REMARK  102  A    between atoms: _285  and  _288
REMARK  103  A    between atoms: _288  and  _289
REMARK  104  A    between atoms: _291  and  _293
REMARK  105  A    between atoms: _293  and  _294
REMARK  106  A    between atoms: _293  and  _296
REMARK  107  A    between atoms: _296  and  _297
REMARK  108  A    between atoms: _300  and  _302
REMARK  109  A    between atoms: _302  and  _303
REMARK  110  A    between atoms: _302  and  _305
REMARK  111  A    between atoms: _305  and  _306
REMARK  112  A    between atoms: _309  and  _311
REMARK  113  A    between atoms: _311  and  _312
REMARK  114  A    between atoms: _311  and  _314
REMARK  115  A    between atoms: _314  and  _315
REMARK  116  A    between atoms: _319  and  _320
REMARK  117  A    between atoms: _326  and  _327
REMARK  118  A    between atoms: _332  and  _334
REMARK  119  A    between atoms: _334  and  _335
REMARK  120  A    between atoms: _334  and  _337
REMARK  121  A    between atoms: _337  and  _338
REMARK  122  A    between atoms: _341  and  _343
REMARK  123  A    between atoms: _343  and  _344
REMARK  124  A    between atoms: _343  and  _346
REMARK  125  A    between atoms: _346  and  _347
REMARK  126  A    between atoms: _350  and  _352
REMARK  127  A    between atoms: _352  and  _353
REMARK  128  A    between atoms: _352  and  _355
REMARK  129  A    between atoms: _357  and  _359
REMARK  130  A    between atoms: _359  and  _360
REMARK  131  A    between atoms: _359  and  _362
REMARK  132  A    between atoms: _365  and  _367
REMARK  133  A    between atoms: _367  and  _368
REMARK  134  A    between atoms: _367  and  _370
REMARK  135  A    between atoms: _370  and  _371
REMARK  136  A    between atoms: _381  and  _383
REMARK  137  A    between atoms: _383  and  _384
REMARK  138  A    between atoms: _383  and  _386
REMARK  139  A    between atoms: _386  and  _387
REMARK  140  A    between atoms: _392  and  _394
REMARK  141  A    between atoms: _394  and  _395
REMARK  142  A    between atoms: _394  and  _397
REMARK  143  A    between atoms: _397  and  _398
REMARK  144  A    between atoms: _398  and  _399
REMARK  145  A    between atoms: _399  and  _400
REMARK                            x       y       z     vdW  Elec       q    Type
REMARK                         _______ _______ _______ _____ _____    ______ ____
ROOT
ATOM      1  O   HOH     1      17.414   9.570  11.533  0.00  0.00    +0.000 OA
ENDROOT
TORSDOF 0
