REMARK  Name = ../refined-set-2016/2qmg/2qmg_pocket.pdb
REMARK  248 active torsions:
REMARK  status: ('A' for Active; 'I' for Inactive)
REMARK    1  A    between atoms: _1  and  _3
REMARK    2  A    between atoms: _3  and  _4
REMARK    3  A    between atoms: _3  and  _6
REMARK    4  A    between atoms: _6  and  _7
REMARK    5  A    between atoms: _7  and  _8
REMARK    6  A    between atoms: _8  and  _9
REMARK    7  A    between atoms: _9  and  _10
REMARK    8  A    between atoms: _14  and  _16
REMARK    9  A    between atoms: _16  and  _17
REMARK   10  A    between atoms: _16  and  _19
REMARK   11  A    between atoms: _19  and  _20
REMARK   12  A    between atoms: _22  and  _24
REMARK   13  A    between atoms: _24  and  _25
REMARK   14  A    between atoms: _27  and  _29
REMARK   15  A    between atoms: _29  and  _30
REMARK   16  A    between atoms: _29  and  _32
REMARK   17  A    between atoms: _32  and  _33
REMARK   18  A    between atoms: _33  and  _34
REMARK   19  A    between atoms: _39  and  _41
REMARK   20  A    between atoms: _41  and  _42
REMARK   21  A    between atoms: _44  and  _46
REMARK   22  A    between atoms: _46  and  _47
REMARK   23  A    between atoms: _46  and  _49
REMARK   24  A    between atoms: _49  and  _50
REMARK   25  A    between atoms: _55  and  _56
REMARK   26  A    between atoms: _58  and  _60
REMARK   27  A    between atoms: _60  and  _61
REMARK   28  A    between atoms: _60  and  _63
REMARK   29  A    between atoms: _63  and  _64
REMARK   30  A    between atoms: _67  and  _69
REMARK   31  A    between atoms: _69  and  _70
REMARK   32  A    between atoms: _69  and  _72
REMARK   33  A    between atoms: _75  and  _77
REMARK   34  A    between atoms: _77  and  _78
REMARK   35  A    between atoms: _77  and  _80
REMARK   36  A    between atoms: _80  and  _81
REMARK   37  A    between atoms: _84  and  _86
REMARK   38  A    between atoms: _86  and  _87
REMARK   39  A    between atoms: _86  and  _89
REMARK   40  A    between atoms: _89  and  _90
REMARK   41  A    between atoms: _93  and  _95
REMARK   42  A    between atoms: _95  and  _96
REMARK   43  A    between atoms: _98  and  _100
REMARK   44  A    between atoms: _100  and  _101
REMARK   45  A    between atoms: _100  and  _103
REMARK   46  A    between atoms: _103  and  _104
REMARK   47  A    between atoms: _106  and  _108
REMARK   48  A    between atoms: _108  and  _109
REMARK   49  A    between atoms: _108  and  _111
REMARK   50  A    between atoms: _111  and  _112
REMARK   51  A    between atoms: _114  and  _116
REMARK   52  A    between atoms: _116  and  _117
REMARK   53  A    between atoms: _116  and  _119
REMARK   54  A    between atoms: _119  and  _120
REMARK   55  A    between atoms: _125  and  _127
REMARK   56  A    between atoms: _127  and  _128
REMARK   57  A    between atoms: _127  and  _130
REMARK   58  A    between atoms: _130  and  _131
REMARK   59  A    between atoms: _136  and  _137
REMARK   60  A    between atoms: _139  and  _141
REMARK   61  A    between atoms: _141  and  _142
REMARK   62  A    between atoms: _141  and  _144
REMARK   63  A    between atoms: _148  and  _149
REMARK   64  A    between atoms: _154  and  _156
REMARK   65  A    between atoms: _156  and  _157
REMARK   66  A    between atoms: _156  and  _159
REMARK   67  A    between atoms: _159  and  _160
REMARK   68  A    between atoms: _165  and  _166
REMARK   69  A    between atoms: _168  and  _170
REMARK   70  A    between atoms: _170  and  _171
REMARK   71  A    between atoms: _170  and  _173
REMARK   72  A    between atoms: _173  and  _174
REMARK   73  A    between atoms: _177  and  _179
REMARK   74  A    between atoms: _179  and  _180
REMARK   75  A    between atoms: _179  and  _182
REMARK   76  A    between atoms: _182  and  _183
REMARK   77  A    between atoms: _183  and  _184
REMARK   78  A    between atoms: _189  and  _191
REMARK   79  A    between atoms: _191  and  _192
REMARK   80  A    between atoms: _194  and  _196
REMARK   81  A    between atoms: _196  and  _197
REMARK   82  A    between atoms: _196  and  _199
REMARK   83  A    between atoms: _199  and  _200
REMARK   84  A    between atoms: _200  and  _201
REMARK   85  A    between atoms: _201  and  _202
REMARK   86  A    between atoms: _202  and  _203
REMARK   87  A    between atoms: _207  and  _209
REMARK   88  A    between atoms: _209  and  _210
REMARK   89  A    between atoms: _209  and  _212
REMARK   90  A    between atoms: _212  and  _213
REMARK   91  A    between atoms: _223  and  _225
REMARK   92  A    between atoms: _225  and  _226
REMARK   93  A    between atoms: _225  and  _228
REMARK   94  A    between atoms: _228  and  _229
REMARK   95  A    between atoms: _232  and  _234
REMARK   96  A    between atoms: _234  and  _235
REMARK   97  A    between atoms: _234  and  _237
REMARK   98  A    between atoms: _237  and  _238
REMARK   99  A    between atoms: _238  and  _239
REMARK  100  A    between atoms: _239  and  _240
REMARK  101  A    between atoms: _240  and  _241
REMARK  102  A    between atoms: _245  and  _247
REMARK  103  A    between atoms: _247  and  _248
REMARK  104  A    between atoms: _247  and  _250
REMARK  105  A    between atoms: _250  and  _251
REMARK  106  A    between atoms: _257  and  _259
REMARK  107  A    between atoms: _259  and  _260
REMARK  108  A    between atoms: _259  and  _262
REMARK  109  A    between atoms: _262  and  _263
REMARK  110  A    between atoms: _269  and  _271
REMARK  111  A    between atoms: _271  and  _272
REMARK  112  A    between atoms: _271  and  _274
REMARK  113  A    between atoms: _274  and  _275
REMARK  114  A    between atoms: _278  and  _280
REMARK  115  A    between atoms: _280  and  _281
REMARK  116  A    between atoms: _280  and  _283
REMARK  117  A    between atoms: _283  and  _284
REMARK  118  A    between atoms: _286  and  _288
REMARK  119  A    between atoms: _288  and  _289
REMARK  120  A    between atoms: _288  and  _291
REMARK  121  A    between atoms: _291  and  _292
REMARK  122  A    between atoms: _302  and  _304
REMARK  123  A    between atoms: _304  and  _305
REMARK  124  A    between atoms: _307  and  _309
REMARK  125  A    between atoms: _309  and  _310
REMARK  126  A    between atoms: _309  and  _312
REMARK  127  A    between atoms: _312  and  _313
REMARK  128  A    between atoms: _316  and  _318
REMARK  129  A    between atoms: _318  and  _319
REMARK  130  A    between atoms: _318  and  _321
REMARK  131  A    between atoms: _321  and  _322
REMARK  132  A    between atoms: _325  and  _327
REMARK  133  A    between atoms: _327  and  _328
REMARK  134  A    between atoms: _330  and  _332
REMARK  135  A    between atoms: _332  and  _333
REMARK  136  A    between atoms: _332  and  _335
REMARK  137  A    between atoms: _335  and  _336
REMARK  138  A    between atoms: _339  and  _341
REMARK  139  A    between atoms: _341  and  _342
REMARK  140  A    between atoms: _345  and  _347
REMARK  141  A    between atoms: _347  and  _348
REMARK  142  A    between atoms: _347  and  _350
REMARK  143  A    between atoms: _350  and  _351
REMARK  144  A    between atoms: _354  and  _356
REMARK  145  A    between atoms: _356  and  _357
REMARK  146  A    between atoms: _360  and  _362
REMARK  147  A    between atoms: _362  and  _363
REMARK  148  A    between atoms: _362  and  _365
REMARK  149  A    between atoms: _365  and  _366
REMARK  150  A    between atoms: _366  and  _367
REMARK  151  A    between atoms: _367  and  _368
REMARK  152  A    between atoms: _377  and  _379
REMARK  153  A    between atoms: _379  and  _380
REMARK  154  A    between atoms: _379  and  _382
REMARK  155  A    between atoms: _382  and  _383
REMARK  156  A    between atoms: _386  and  _388
REMARK  157  A    between atoms: _388  and  _389
REMARK  158  A    between atoms: _388  and  _391
REMARK  159  A    between atoms: _391  and  _392
REMARK  160  A    between atoms: _397  and  _398
REMARK  161  A    between atoms: _400  and  _402
REMARK  162  A    between atoms: _402  and  _403
REMARK  163  A    between atoms: _402  and  _405
REMARK  164  A    between atoms: _405  and  _406
REMARK  165  A    between atoms: _411  and  _412
REMARK  166  A    between atoms: _414  and  _416
REMARK  167  A    between atoms: _416  and  _417
REMARK  168  A    between atoms: _416  and  _419
REMARK  169  A    between atoms: _419  and  _420
REMARK  170  A    between atoms: _420  and  _421
REMARK  171  A    between atoms: _421  and  _422
REMARK  172  A    between atoms: _422  and  _423
REMARK  173  A    between atoms: _427  and  _429
REMARK  174  A    between atoms: _429  and  _430
REMARK  175  A    between atoms: _429  and  _432
REMARK  176  A    between atoms: _432  and  _433
REMARK  177  A    between atoms: _436  and  _438
REMARK  178  A    between atoms: _438  and  _439
REMARK  179  A    between atoms: _438  and  _441
REMARK  180  A    between atoms: _444  and  _446
REMARK  181  A    between atoms: _446  and  _447
REMARK  182  A    between atoms: _446  and  _449
REMARK  183  A    between atoms: _449  and  _450
REMARK  184  A    between atoms: _453  and  _455
REMARK  185  A    between atoms: _455  and  _456
REMARK  186  A    between atoms: _455  and  _458
REMARK  187  A    between atoms: _458  and  _459
REMARK  188  A    between atoms: _461  and  _463
REMARK  189  A    between atoms: _463  and  _464
REMARK  190  A    between atoms: _466  and  _468
REMARK  191  A    between atoms: _468  and  _469
REMARK  192  A    between atoms: _468  and  _471
REMARK  193  A    between atoms: _471  and  _472
REMARK  194  A    between atoms: _475  and  _477
REMARK  195  A    between atoms: _477  and  _478
REMARK  196  A    between atoms: _477  and  _480
REMARK  197  A    between atoms: _480  and  _481
REMARK  198  A    between atoms: _484  and  _486
REMARK  199  A    between atoms: _486  and  _487
REMARK  200  A    between atoms: _486  and  _489
REMARK  201  A    between atoms: _489  and  _490
REMARK  202  A    between atoms: _495  and  _497
REMARK  203  A    between atoms: _497  and  _498
REMARK  204  A    between atoms: _497  and  _500
REMARK  205  A    between atoms: _500  and  _501
REMARK  206  A    between atoms: _501  and  _502
REMARK  207  A    between atoms: _502  and  _503
REMARK  208  A    between atoms: _512  and  _514
REMARK  209  A    between atoms: _514  and  _515
REMARK  210  A    between atoms: _514  and  _517
REMARK  211  A    between atoms: _517  and  _518
REMARK  212  A    between atoms: _518  and  _519
REMARK  213  A    between atoms: _519  and  _520
REMARK  214  A    between atoms: _529  and  _531
REMARK  215  A    between atoms: _531  and  _532
REMARK  216  A    between atoms: _531  and  _534
REMARK  217  A    between atoms: _534  and  _535
REMARK  218  A    between atoms: _537  and  _539
REMARK  219  A    between atoms: _539  and  _540
REMARK  220  A    between atoms: _539  and  _542
REMARK  221  A    between atoms: _542  and  _543
REMARK  222  A    between atoms: _543  and  _544
REMARK  223  A    between atoms: _549  and  _551
REMARK  224  A    between atoms: _551  and  _552
REMARK  225  A    between atoms: _551  and  _554
REMARK  226  A    between atoms: _554  and  _555
REMARK  227  A    between atoms: _557  and  _559
REMARK  228  A    between atoms: _559  and  _560
REMARK  229  A    between atoms: _559  and  _562
REMARK  230  A    between atoms: _562  and  _563
REMARK  231  A    between atoms: _565  and  _567
REMARK  232  A    between atoms: _567  and  _568
REMARK  233  A    between atoms: _567  and  _570
REMARK  234  A    between atoms: _570  and  _571
REMARK  235  A    between atoms: _574  and  _576
REMARK  236  A    between atoms: _576  and  _577
REMARK  237  A    between atoms: _576  and  _579
REMARK  238  A    between atoms: _579  and  _580
REMARK  239  A    between atoms: _583  and  _585
REMARK  240  A    between atoms: _585  and  _586
REMARK  241  A    between atoms: _585  and  _588
REMARK  242  A    between atoms: _591  and  _593
REMARK  243  A    between atoms: _593  and  _594
REMARK  244  A    between atoms: _596  and  _598
REMARK  245  A    between atoms: _598  and  _599
REMARK  246  A    between atoms: _602  and  _604
REMARK  247  A    between atoms: _604  and  _605
REMARK  248  A    between atoms: _604  and  _607
REMARK                            x       y       z     vdW  Elec       q    Type
REMARK                         _______ _______ _______ _____ _____    ______ ____
ROOT
ATOM      1  CA  GLN A   4      33.094  10.259  18.906  0.00  0.00    +0.149 C 
ENDROOT
BRANCH   1   3
ATOM      2  C   GLY A   3      33.668  11.887  20.622  0.00  0.00    +0.243 C 
ATOM      3  N   GLN A   4      33.789  10.649  20.135  0.00  0.00    -0.297 N 
ATOM      4  H   GLN A   4      34.382   9.955  20.633  0.00  0.00    +0.150 HD
ATOM      5  O   GLY A   3      32.994  12.753  20.077  0.00  0.00    -0.273 OA
BRANCH   2   6
ATOM      6  CA  GLY A   3      34.410  12.212  21.901  0.00  0.00    +0.176 C 
BRANCH   6   8
ATOM      7  C   SER A   2      35.388  10.278  22.877  0.00  0.00    +0.243 C 
ATOM      8  N   GLY A   3      34.345  11.077  22.788  0.00  0.00    -0.295 N 
ATOM      9  H   GLY A   3      33.488  10.892  23.348  0.00  0.00    +0.150 HD
ATOM     10  O   SER A   2      36.422  10.475  22.235  0.00  0.00    -0.273 OA
BRANCH   7  11
ATOM     11  CA  SER A   2      35.257   9.076  23.810  0.00  0.00    +0.178 C 
BRANCH  11  13
ATOM     12  C   LYS A   1      35.783   7.569  22.022  0.00  0.00    +0.238 C 
ATOM     13  N   SER A   2      36.119   8.086  23.196  0.00  0.00    -0.295 N 
ATOM     14  H   SER A   2      36.993   7.784  23.672  0.00  0.00    +0.150 HD
ATOM     15  O   LYS A   1      34.741   7.866  21.441  0.00  0.00    -0.274 OA
BRANCH  12  16
ATOM     16  CA  LYS A   1      36.749   6.566  21.417  0.00  0.00    +0.145 C 
BRANCH  16  17
ATOM     17  N   LYS A   1      36.112   5.897  20.295  0.00  0.00    -0.238 NA
ATOM     18  H   LYS A   1      35.209   6.262  19.929  0.00  0.00    +0.142 HD
ENDBRANCH  16  17
BRANCH  16  19
ATOM     19  CB  LYS A   1      37.998   7.297  20.930  0.00  0.00    +0.026 C 
BRANCH  19  20
ATOM     20  CG  LYS A   1      37.728   8.262  19.775  0.00  0.00    -0.000 C 
BRANCH  20  21
ATOM     21  CD  LYS A   1      39.018   8.922  19.320  0.00  0.00    -0.024 C 
BRANCH  21  22
ATOM     22  CE  LYS A   1      38.798   9.848  18.133  0.00  0.00    -0.086 C 
BRANCH  22  23
ATOM     23  NZ  LYS A   1      40.048  10.592  17.799  0.00  0.00    +0.380 N 
ATOM     24  HZ1 LYS A   1      40.340  11.162  18.618  0.00  0.00    -0.089 HD
ATOM     25  HZ2 LYS A   1      40.800   9.914  17.560  0.00  0.00    -0.089 HD
ATOM     26  HZ3 LYS A   1      39.872  11.217  16.986  0.00  0.00    -0.089 HD
ENDBRANCH  22  23
ENDBRANCH  21  22
ENDBRANCH  20  21
ENDBRANCH  19  20
ENDBRANCH  16  19
ENDBRANCH  12  16
ENDBRANCH  11  13
BRANCH  11  27
ATOM     27  CB  SER A   2      35.756   9.433  25.211  0.00  0.00    +0.166 C 
BRANCH  27  28
ATOM     28  OG  SER A   2      36.996  10.107  25.132  0.00  0.00    -0.380 OA
ATOM     29  H   SER A   2      37.307  10.332  26.045  0.00  0.00    +0.211 HD
ENDBRANCH  27  28
ENDBRANCH  11  27
ENDBRANCH   7  11
ENDBRANCH   6   8
ENDBRANCH   2   6
ENDBRANCH   1   3
BRANCH   1  30
ATOM     30  C   GLN A   4      32.149   9.078  19.101  0.00  0.00    +0.241 C 
ATOM     31  N   GLY A   5      32.298   8.380  20.222  0.00  0.00    -0.295 N 
ATOM     32  H   GLY A   5      33.039   8.649  20.900  0.00  0.00    +0.150 HD
ATOM     33  O   GLN A   4      31.300   8.810  18.251  0.00  0.00    -0.273 OA
BRANCH  31  34
ATOM     34  CA  GLY A   5      31.439   7.247  20.512  0.00  0.00    +0.176 C 
BRANCH  34  35
ATOM     35  C   GLY A   5      32.068   5.910  20.171  0.00  0.00    +0.243 C 
ATOM     36  N   TYR A   6      31.571   4.844  20.798  0.00  0.00    -0.298 N 
ATOM     37  H   TYR A   6      30.807   4.982  21.490  0.00  0.00    +0.150 HD
ATOM     38  O   GLY A   5      32.990   5.851  19.358  0.00  0.00    -0.273 OA
BRANCH  36  39
ATOM     39  CA  TYR A   6      32.059   3.485  20.550  0.00  0.00    +0.141 C 
BRANCH  39  40
ATOM     40  C   TYR A   6      31.011   2.758  19.707  0.00  0.00    +0.227 C 
ATOM     41  O   TYR A   6      29.810   2.847  19.985  0.00  0.00    -0.286 OA
ENDBRANCH  39  40
BRANCH  39  42
ATOM     42  CB  TYR A   6      32.281   2.748  21.872  0.00  0.00    +0.054 C 
BRANCH  42  43
ATOM     43  CG  TYR A   6      33.465   3.280  22.645  0.00  0.00    -0.020 A 
ATOM     44  CD2 TYR A   6      33.329   4.348  23.538  0.00  0.00    -0.001 A 
ATOM     45  CE2 TYR A   6      34.431   4.864  24.206  0.00  0.00    +0.036 A 
ATOM     46  CZ  TYR A   6      35.686   4.308  23.980  0.00  0.00    +0.134 A 
ATOM     47  CE1 TYR A   6      35.834   3.257  23.099  0.00  0.00    +0.036 A 
ATOM     48  CD1 TYR A   6      34.731   2.750  22.445  0.00  0.00    -0.001 A 
BRANCH  46  49
ATOM     49  OH  TYR A   6      36.802   4.771  24.648  0.00  0.00    -0.506 OA
ATOM     50  HH  TYR A   6      36.543   5.521  25.240  0.00  0.00    +0.292 HD
ENDBRANCH  46  49
ENDBRANCH  42  43
ENDBRANCH  39  42
ENDBRANCH  36  39
ENDBRANCH  34  35
ENDBRANCH  31  34
ENDBRANCH   1  30
BRANCH   1  51
ATOM     51  CB  GLN A   4      34.093   9.926  17.796  0.00  0.00    +0.039 C 
BRANCH  51  52
ATOM     52  CG  GLN A   4      34.925  11.114  17.348  0.00  0.00    +0.087 C 
BRANCH  52  53
ATOM     53  CD  GLN A   4      35.539  10.911  15.976  0.00  0.00    +0.219 C 
ATOM     54  OE1 GLN A   4      36.264   9.940  15.739  0.00  0.00    -0.275 OA
ATOM     55  NE2 GLN A   4      35.250  11.831  15.060  0.00  0.00    -0.329 N 
ATOM     56 HE21 GLN A   4      34.634  12.633  15.304  0.00  0.00    +0.145 HD
ATOM     57 HE22 GLN A   4      35.640  11.749  14.099  0.00  0.00    +0.145 HD
ENDBRANCH  52  53
ENDBRANCH  51  52
ENDBRANCH   1  51
TORSDOF 25
REMARK  Name = ../refined-set-2016/2qmg/2qmg_pocket.pdb
REMARK  248 active torsions:
REMARK  status: ('A' for Active; 'I' for Inactive)
REMARK    1  A    between atoms: _1  and  _3
REMARK    2  A    between atoms: _3  and  _4
REMARK    3  A    between atoms: _3  and  _6
REMARK    4  A    between atoms: _6  and  _7
REMARK    5  A    between atoms: _7  and  _8
REMARK    6  A    between atoms: _8  and  _9
REMARK    7  A    between atoms: _9  and  _10
REMARK    8  A    between atoms: _14  and  _16
REMARK    9  A    between atoms: _16  and  _17
REMARK   10  A    between atoms: _16  and  _19
REMARK   11  A    between atoms: _19  and  _20
REMARK   12  A    between atoms: _22  and  _24
REMARK   13  A    between atoms: _24  and  _25
REMARK   14  A    between atoms: _27  and  _29
REMARK   15  A    between atoms: _29  and  _30
REMARK   16  A    between atoms: _29  and  _32
REMARK   17  A    between atoms: _32  and  _33
REMARK   18  A    between atoms: _33  and  _34
REMARK   19  A    between atoms: _39  and  _41
REMARK   20  A    between atoms: _41  and  _42
REMARK   21  A    between atoms: _44  and  _46
REMARK   22  A    between atoms: _46  and  _47
REMARK   23  A    between atoms: _46  and  _49
REMARK   24  A    between atoms: _49  and  _50
REMARK   25  A    between atoms: _55  and  _56
REMARK   26  A    between atoms: _58  and  _60
REMARK   27  A    between atoms: _60  and  _61
REMARK   28  A    between atoms: _60  and  _63
REMARK   29  A    between atoms: _63  and  _64
REMARK   30  A    between atoms: _67  and  _69
REMARK   31  A    between atoms: _69  and  _70
REMARK   32  A    between atoms: _69  and  _72
REMARK   33  A    between atoms: _75  and  _77
REMARK   34  A    between atoms: _77  and  _78
REMARK   35  A    between atoms: _77  and  _80
REMARK   36  A    between atoms: _80  and  _81
REMARK   37  A    between atoms: _84  and  _86
REMARK   38  A    between atoms: _86  and  _87
REMARK   39  A    between atoms: _86  and  _89
REMARK   40  A    between atoms: _89  and  _90
REMARK   41  A    between atoms: _93  and  _95
REMARK   42  A    between atoms: _95  and  _96
REMARK   43  A    between atoms: _98  and  _100
REMARK   44  A    between atoms: _100  and  _101
REMARK   45  A    between atoms: _100  and  _103
REMARK   46  A    between atoms: _103  and  _104
REMARK   47  A    between atoms: _106  and  _108
REMARK   48  A    between atoms: _108  and  _109
REMARK   49  A    between atoms: _108  and  _111
REMARK   50  A    between atoms: _111  and  _112
REMARK   51  A    between atoms: _114  and  _116
REMARK   52  A    between atoms: _116  and  _117
REMARK   53  A    between atoms: _116  and  _119
REMARK   54  A    between atoms: _119  and  _120
REMARK   55  A    between atoms: _125  and  _127
REMARK   56  A    between atoms: _127  and  _128
REMARK   57  A    between atoms: _127  and  _130
REMARK   58  A    between atoms: _130  and  _131
REMARK   59  A    between atoms: _136  and  _137
REMARK   60  A    between atoms: _139  and  _141
REMARK   61  A    between atoms: _141  and  _142
REMARK   62  A    between atoms: _141  and  _144
REMARK   63  A    between atoms: _148  and  _149
REMARK   64  A    between atoms: _154  and  _156
REMARK   65  A    between atoms: _156  and  _157
REMARK   66  A    between atoms: _156  and  _159
REMARK   67  A    between atoms: _159  and  _160
REMARK   68  A    between atoms: _165  and  _166
REMARK   69  A    between atoms: _168  and  _170
REMARK   70  A    between atoms: _170  and  _171
REMARK   71  A    between atoms: _170  and  _173
REMARK   72  A    between atoms: _173  and  _174
REMARK   73  A    between atoms: _177  and  _179
REMARK   74  A    between atoms: _179  and  _180
REMARK   75  A    between atoms: _179  and  _182
REMARK   76  A    between atoms: _182  and  _183
REMARK   77  A    between atoms: _183  and  _184
REMARK   78  A    between atoms: _189  and  _191
REMARK   79  A    between atoms: _191  and  _192
REMARK   80  A    between atoms: _194  and  _196
REMARK   81  A    between atoms: _196  and  _197
REMARK   82  A    between atoms: _196  and  _199
REMARK   83  A    between atoms: _199  and  _200
REMARK   84  A    between atoms: _200  and  _201
REMARK   85  A    between atoms: _201  and  _202
REMARK   86  A    between atoms: _202  and  _203
REMARK   87  A    between atoms: _207  and  _209
REMARK   88  A    between atoms: _209  and  _210
REMARK   89  A    between atoms: _209  and  _212
REMARK   90  A    between atoms: _212  and  _213
REMARK   91  A    between atoms: _223  and  _225
REMARK   92  A    between atoms: _225  and  _226
REMARK   93  A    between atoms: _225  and  _228
REMARK   94  A    between atoms: _228  and  _229
REMARK   95  A    between atoms: _232  and  _234
REMARK   96  A    between atoms: _234  and  _235
REMARK   97  A    between atoms: _234  and  _237
REMARK   98  A    between atoms: _237  and  _238
REMARK   99  A    between atoms: _238  and  _239
REMARK  100  A    between atoms: _239  and  _240
REMARK  101  A    between atoms: _240  and  _241
REMARK  102  A    between atoms: _245  and  _247
REMARK  103  A    between atoms: _247  and  _248
REMARK  104  A    between atoms: _247  and  _250
REMARK  105  A    between atoms: _250  and  _251
REMARK  106  A    between atoms: _257  and  _259
REMARK  107  A    between atoms: _259  and  _260
REMARK  108  A    between atoms: _259  and  _262
REMARK  109  A    between atoms: _262  and  _263
REMARK  110  A    between atoms: _269  and  _271
REMARK  111  A    between atoms: _271  and  _272
REMARK  112  A    between atoms: _271  and  _274
REMARK  113  A    between atoms: _274  and  _275
REMARK  114  A    between atoms: _278  and  _280
REMARK  115  A    between atoms: _280  and  _281
REMARK  116  A    between atoms: _280  and  _283
REMARK  117  A    between atoms: _283  and  _284
REMARK  118  A    between atoms: _286  and  _288
REMARK  119  A    between atoms: _288  and  _289
REMARK  120  A    between atoms: _288  and  _291
REMARK  121  A    between atoms: _291  and  _292
REMARK  122  A    between atoms: _302  and  _304
REMARK  123  A    between atoms: _304  and  _305
REMARK  124  A    between atoms: _307  and  _309
REMARK  125  A    between atoms: _309  and  _310
REMARK  126  A    between atoms: _309  and  _312
REMARK  127  A    between atoms: _312  and  _313
REMARK  128  A    between atoms: _316  and  _318
REMARK  129  A    between atoms: _318  and  _319
REMARK  130  A    between atoms: _318  and  _321
REMARK  131  A    between atoms: _321  and  _322
REMARK  132  A    between atoms: _325  and  _327
REMARK  133  A    between atoms: _327  and  _328
REMARK  134  A    between atoms: _330  and  _332
REMARK  135  A    between atoms: _332  and  _333
REMARK  136  A    between atoms: _332  and  _335
REMARK  137  A    between atoms: _335  and  _336
REMARK  138  A    between atoms: _339  and  _341
REMARK  139  A    between atoms: _341  and  _342
REMARK  140  A    between atoms: _345  and  _347
REMARK  141  A    between atoms: _347  and  _348
REMARK  142  A    between atoms: _347  and  _350
REMARK  143  A    between atoms: _350  and  _351
REMARK  144  A    between atoms: _354  and  _356
REMARK  145  A    between atoms: _356  and  _357
REMARK  146  A    between atoms: _360  and  _362
REMARK  147  A    between atoms: _362  and  _363
REMARK  148  A    between atoms: _362  and  _365
REMARK  149  A    between atoms: _365  and  _366
REMARK  150  A    between atoms: _366  and  _367
REMARK  151  A    between atoms: _367  and  _368
REMARK  152  A    between atoms: _377  and  _379
REMARK  153  A    between atoms: _379  and  _380
REMARK  154  A    between atoms: _379  and  _382
REMARK  155  A    between atoms: _382  and  _383
REMARK  156  A    between atoms: _386  and  _388
REMARK  157  A    between atoms: _388  and  _389
REMARK  158  A    between atoms: _388  and  _391
REMARK  159  A    between atoms: _391  and  _392
REMARK  160  A    between atoms: _397  and  _398
REMARK  161  A    between atoms: _400  and  _402
REMARK  162  A    between atoms: _402  and  _403
REMARK  163  A    between atoms: _402  and  _405
REMARK  164  A    between atoms: _405  and  _406
REMARK  165  A    between atoms: _411  and  _412
REMARK  166  A    between atoms: _414  and  _416
REMARK  167  A    between atoms: _416  and  _417
REMARK  168  A    between atoms: _416  and  _419
REMARK  169  A    between atoms: _419  and  _420
REMARK  170  A    between atoms: _420  and  _421
REMARK  171  A    between atoms: _421  and  _422
REMARK  172  A    between atoms: _422  and  _423
REMARK  173  A    between atoms: _427  and  _429
REMARK  174  A    between atoms: _429  and  _430
REMARK  175  A    between atoms: _429  and  _432
REMARK  176  A    between atoms: _432  and  _433
REMARK  177  A    between atoms: _436  and  _438
REMARK  178  A    between atoms: _438  and  _439
REMARK  179  A    between atoms: _438  and  _441
REMARK  180  A    between atoms: _444  and  _446
REMARK  181  A    between atoms: _446  and  _447
REMARK  182  A    between atoms: _446  and  _449
REMARK  183  A    between atoms: _449  and  _450
REMARK  184  A    between atoms: _453  and  _455
REMARK  185  A    between atoms: _455  and  _456
REMARK  186  A    between atoms: _455  and  _458
REMARK  187  A    between atoms: _458  and  _459
REMARK  188  A    between atoms: _461  and  _463
REMARK  189  A    between atoms: _463  and  _464
REMARK  190  A    between atoms: _466  and  _468
REMARK  191  A    between atoms: _468  and  _469
REMARK  192  A    between atoms: _468  and  _471
REMARK  193  A    between atoms: _471  and  _472
REMARK  194  A    between atoms: _475  and  _477
REMARK  195  A    between atoms: _477  and  _478
REMARK  196  A    between atoms: _477  and  _480
REMARK  197  A    between atoms: _480  and  _481
REMARK  198  A    between atoms: _484  and  _486
REMARK  199  A    between atoms: _486  and  _487
REMARK  200  A    between atoms: _486  and  _489
REMARK  201  A    between atoms: _489  and  _490
REMARK  202  A    between atoms: _495  and  _497
REMARK  203  A    between atoms: _497  and  _498
REMARK  204  A    between atoms: _497  and  _500
REMARK  205  A    between atoms: _500  and  _501
REMARK  206  A    between atoms: _501  and  _502
REMARK  207  A    between atoms: _502  and  _503
REMARK  208  A    between atoms: _512  and  _514
REMARK  209  A    between atoms: _514  and  _515
REMARK  210  A    between atoms: _514  and  _517
REMARK  211  A    between atoms: _517  and  _518
REMARK  212  A    between atoms: _518  and  _519
REMARK  213  A    between atoms: _519  and  _520
REMARK  214  A    between atoms: _529  and  _531
REMARK  215  A    between atoms: _531  and  _532
REMARK  216  A    between atoms: _531  and  _534
REMARK  217  A    between atoms: _534  and  _535
REMARK  218  A    between atoms: _537  and  _539
REMARK  219  A    between atoms: _539  and  _540
REMARK  220  A    between atoms: _539  and  _542
REMARK  221  A    between atoms: _542  and  _543
REMARK  222  A    between atoms: _543  and  _544
REMARK  223  A    between atoms: _549  and  _551
REMARK  224  A    between atoms: _551  and  _552
REMARK  225  A    between atoms: _551  and  _554
REMARK  226  A    between atoms: _554  and  _555
REMARK  227  A    between atoms: _557  and  _559
REMARK  228  A    between atoms: _559  and  _560
REMARK  229  A    between atoms: _559  and  _562
REMARK  230  A    between atoms: _562  and  _563
REMARK  231  A    between atoms: _565  and  _567
REMARK  232  A    between atoms: _567  and  _568
REMARK  233  A    between atoms: _567  and  _570
REMARK  234  A    between atoms: _570  and  _571
REMARK  235  A    between atoms: _574  and  _576
REMARK  236  A    between atoms: _576  and  _577
REMARK  237  A    between atoms: _576  and  _579
REMARK  238  A    between atoms: _579  and  _580
REMARK  239  A    between atoms: _583  and  _585
REMARK  240  A    between atoms: _585  and  _586
REMARK  241  A    between atoms: _585  and  _588
REMARK  242  A    between atoms: _591  and  _593
REMARK  243  A    between atoms: _593  and  _594
REMARK  244  A    between atoms: _596  and  _598
REMARK  245  A    between atoms: _598  and  _599
REMARK  246  A    between atoms: _602  and  _604
REMARK  247  A    between atoms: _604  and  _605
REMARK  248  A    between atoms: _604  and  _607
REMARK                            x       y       z     vdW  Elec       q    Type
REMARK                         _______ _______ _______ _____ _____    ______ ____
ROOT
ATOM      1  C   THR A   4      21.834   3.976  27.089  0.00  0.00    +0.243 C 
ATOM      2  O   THR A   4      21.072   3.802  28.033  0.00  0.00    -0.273 OA
ATOM      3  N   GLY A   5      21.955   5.142  26.452  0.00  0.00    -0.295 N 
ATOM      4  H   GLY A   5      22.614   5.218  25.651  0.00  0.00    +0.150 HD
ENDROOT
BRANCH   3   5
ATOM      5  CA  GLY A   5      21.183   6.313  26.854  0.00  0.00    +0.176 C 
BRANCH   5   6
ATOM      6  C   GLY A   5      19.931   6.604  26.035  0.00  0.00    +0.243 C 
ATOM      7  O   GLY A   5      19.279   7.629  26.241  0.00  0.00    -0.273 OA
ATOM      8  N   SER A   6      19.596   5.726  25.091  0.00  0.00    -0.295 N 
ATOM      9  H   SER A   6      20.200   4.894  24.931  0.00  0.00    +0.150 HD
BRANCH   8  10
ATOM     10  CA  SER A   6      18.389   5.910  24.271  0.00  0.00    +0.178 C 
BRANCH  10  11
ATOM     11  C   SER A   6      17.831   4.537  23.920  0.00  0.00    +0.243 C 
ATOM     12  O   SER A   6      18.435   3.521  24.262  0.00  0.00    -0.273 OA
ATOM     13  N   SER A   7      16.698   4.489  23.225  0.00  0.00    -0.295 N 
ATOM     14  H   SER A   7      16.248   5.365  22.890  0.00  0.00    +0.150 HD
BRANCH  13  15
ATOM     15  CA  SER A   7      16.094   3.193  22.939  0.00  0.00    +0.178 C 
BRANCH  15  16
ATOM     16  C   SER A   7      15.665   2.917  21.499  0.00  0.00    +0.243 C 
ATOM     17  O   SER A   7      14.920   1.965  21.241  0.00  0.00    -0.273 OA
ATOM     18  N   ASN A   8      16.116   3.741  20.565  0.00  0.00    -0.298 N 
ATOM     19  H   ASN A   8      16.706   4.553  20.836  0.00  0.00    +0.150 HD
BRANCH  18  20
ATOM     20  CA  ASN A   8      15.792   3.519  19.162  0.00  0.00    +0.146 C 
BRANCH  20  21
ATOM     21  C   ASN A   8      16.993   3.007  18.386  0.00  0.00    +0.227 C 
ATOM     22  O   ASN A   8      18.123   3.443  18.611  0.00  0.00    -0.286 OA
ENDBRANCH  20  21
BRANCH  20  23
ATOM     23  CB  ASN A   8      15.323   4.809  18.486  0.00  0.00    +0.112 C 
BRANCH  23  24
ATOM     24  CG  ASN A   8      13.913   5.166  18.844  0.00  0.00    +0.222 C 
ATOM     25  OD1 ASN A   8      13.655   5.725  19.914  0.00  0.00    -0.275 OA
ATOM     26  ND2 ASN A   8      12.974   4.826  17.958  0.00  0.00    -0.329 N 
ATOM     27 HD21 ASN A   8      11.974   5.031  18.156  0.00  0.00    +0.145 HD
ATOM     28 HD22 ASN A   8      13.243   4.356  17.070  0.00  0.00    +0.145 HD
ENDBRANCH  23  24
ENDBRANCH  20  23
ENDBRANCH  18  20
ENDBRANCH  15  16
BRANCH  15  29
ATOM     29  CB  SER A   7      14.898   3.001  23.873  0.00  0.00    +0.166 C 
BRANCH  29  30
ATOM     30  OG  SER A   7      15.282   3.224  25.219  0.00  0.00    -0.380 OA
ATOM     31  H   SER A   7      14.498   3.096  25.810  0.00  0.00    +0.211 HD
ENDBRANCH  29  30
ENDBRANCH  15  29
ENDBRANCH  13  15
ENDBRANCH  10  11
BRANCH  10  32
ATOM     32  CB  SER A   6      18.687   6.701  22.994  0.00  0.00    +0.166 C 
BRANCH  32  33
ATOM     33  OG  SER A   6      19.455   5.940  22.086  0.00  0.00    -0.380 OA
ATOM     34  H   SER A   6      20.314   5.691  22.510  0.00  0.00    +0.211 HD
ENDBRANCH  32  33
ENDBRANCH  10  32
ENDBRANCH   8  10
ENDBRANCH   5   6
ENDBRANCH   3   5
BRANCH   1  35
ATOM     35  CA  THR A   4      22.709   2.827  26.588  0.00  0.00    +0.176 C 
BRANCH  35  37
ATOM     36  C   ASP A   3      23.076   3.402  24.282  0.00  0.00    +0.241 C 
ATOM     37  N   THR A   4      23.567   3.292  25.512  0.00  0.00    -0.295 N 
ATOM     38  H   THR A   4      24.559   3.537  25.703  0.00  0.00    +0.150 HD
ATOM     39  O   ASP A   3      21.911   3.106  24.013  0.00  0.00    -0.273 OA
BRANCH  36  40
ATOM     40  CA  ASP A   3      24.025   3.917  23.202  0.00  0.00    +0.160 C 
BRANCH  40  43
ATOM     41  C   VAL A   2      25.897   2.780  22.138  0.00  0.00    +0.241 C 
ATOM     42  O   VAL A   2      26.717   3.488  22.720  0.00  0.00    -0.273 OA
ATOM     43  N   ASP A   3      24.583   2.893  22.322  0.00  0.00    -0.297 N 
ATOM     44  H   ASP A   3      23.941   2.239  21.830  0.00  0.00    +0.150 HD
BRANCH  41  45
ATOM     45  CA  VAL A   2      26.363   1.708  21.157  0.00  0.00    +0.148 C 
BRANCH  45  47
ATOM     46  C   LEU A   1      26.296   2.841  19.006  0.00  0.00    +0.238 C 
ATOM     47  N   VAL A   2      27.006   2.375  20.030  0.00  0.00    -0.297 N 
ATOM     48  H   VAL A   2      28.040   2.488  20.027  0.00  0.00    +0.150 HD
ATOM     49  O   LEU A   1      25.064   2.734  18.948  0.00  0.00    -0.274 OA
BRANCH  46  50
ATOM     50  CA  LEU A   1      27.077   3.533  17.889  0.00  0.00    +0.145 C 
BRANCH  50  51
ATOM     51  N   LEU A   1      26.731   2.978  16.584  0.00  0.00    -0.238 NA
ATOM     52  H   LEU A   1      26.262   3.591  15.887  0.00  0.00    +0.142 HD
ENDBRANCH  50  51
BRANCH  50  53
ATOM     53  CB  LEU A   1      26.756   5.037  17.907  0.00  0.00    +0.026 C 
BRANCH  53  54
ATOM     54  CG  LEU A   1      26.911   5.778  19.240  0.00  0.00    +0.002 C 
ATOM     55  CD2 LEU A   1      28.379   6.072  19.472  0.00  0.00    +0.000 C 
ATOM     56  CD1 LEU A   1      26.117   7.084  19.206  0.00  0.00    +0.000 C 
ENDBRANCH  53  54
ENDBRANCH  50  53
ENDBRANCH  46  50
ENDBRANCH  45  47
BRANCH  45  57
ATOM     57  CB  VAL A   2      27.349   0.750  21.859  0.00  0.00    +0.027 C 
ATOM     58  CG2 VAL A   2      26.727   0.191  23.131  0.00  0.00    +0.002 C 
ATOM     59  CG1 VAL A   2      27.730  -0.381  20.900  0.00  0.00    +0.002 C 
ENDBRANCH  45  57
ENDBRANCH  41  45
ENDBRANCH  40  43
BRANCH  40  60
ATOM     60  CB  ASP A   3      23.306   4.981  22.349  0.00  0.00    +0.143 C 
BRANCH  60  61
ATOM     61  CG  ASP A   3      22.711   6.102  23.191  0.00  0.00    +0.367 C 
ATOM     62  OD2 ASP A   3      23.176   6.290  24.334  0.00  0.00    -0.246 OA
ATOM     63  OD1 ASP A   3      21.792   6.803  22.708  0.00  0.00    -0.246 OA
ENDBRANCH  60  61
ENDBRANCH  40  60
ENDBRANCH  36  40
ENDBRANCH  35  37
BRANCH  35  64
ATOM     64  CB  THR A   4      23.525   2.275  27.777  0.00  0.00    +0.137 C 
ATOM     65  CG2 THR A   4      24.421   1.114  27.325  0.00  0.00    +0.034 C 
BRANCH  64  66
ATOM     66  OG1 THR A   4      24.332   3.323  28.342  0.00  0.00    -0.382 OA
ATOM     67  HG1 THR A   4      23.746   4.055  28.658  0.00  0.00    +0.210 HD
ENDBRANCH  64  66
ENDBRANCH  35  64
ENDBRANCH   1  35
TORSDOF 29
REMARK  Name = ../refined-set-2016/2qmg/2qmg_pocket.pdb
REMARK  248 active torsions:
REMARK  status: ('A' for Active; 'I' for Inactive)
REMARK    1  A    between atoms: _1  and  _3
REMARK    2  A    between atoms: _3  and  _4
REMARK    3  A    between atoms: _3  and  _6
REMARK    4  A    between atoms: _6  and  _7
REMARK    5  A    between atoms: _7  and  _8
REMARK    6  A    between atoms: _8  and  _9
REMARK    7  A    between atoms: _9  and  _10
REMARK    8  A    between atoms: _14  and  _16
REMARK    9  A    between atoms: _16  and  _17
REMARK   10  A    between atoms: _16  and  _19
REMARK   11  A    between atoms: _19  and  _20
REMARK   12  A    between atoms: _22  and  _24
REMARK   13  A    between atoms: _24  and  _25
REMARK   14  A    between atoms: _27  and  _29
REMARK   15  A    between atoms: _29  and  _30
REMARK   16  A    between atoms: _29  and  _32
REMARK   17  A    between atoms: _32  and  _33
REMARK   18  A    between atoms: _33  and  _34
REMARK   19  A    between atoms: _39  and  _41
REMARK   20  A    between atoms: _41  and  _42
REMARK   21  A    between atoms: _44  and  _46
REMARK   22  A    between atoms: _46  and  _47
REMARK   23  A    between atoms: _46  and  _49
REMARK   24  A    between atoms: _49  and  _50
REMARK   25  A    between atoms: _55  and  _56
REMARK   26  A    between atoms: _58  and  _60
REMARK   27  A    between atoms: _60  and  _61
REMARK   28  A    between atoms: _60  and  _63
REMARK   29  A    between atoms: _63  and  _64
REMARK   30  A    between atoms: _67  and  _69
REMARK   31  A    between atoms: _69  and  _70
REMARK   32  A    between atoms: _69  and  _72
REMARK   33  A    between atoms: _75  and  _77
REMARK   34  A    between atoms: _77  and  _78
REMARK   35  A    between atoms: _77  and  _80
REMARK   36  A    between atoms: _80  and  _81
REMARK   37  A    between atoms: _84  and  _86
REMARK   38  A    between atoms: _86  and  _87
REMARK   39  A    between atoms: _86  and  _89
REMARK   40  A    between atoms: _89  and  _90
REMARK   41  A    between atoms: _93  and  _95
REMARK   42  A    between atoms: _95  and  _96
REMARK   43  A    between atoms: _98  and  _100
REMARK   44  A    between atoms: _100  and  _101
REMARK   45  A    between atoms: _100  and  _103
REMARK   46  A    between atoms: _103  and  _104
REMARK   47  A    between atoms: _106  and  _108
REMARK   48  A    between atoms: _108  and  _109
REMARK   49  A    between atoms: _108  and  _111
REMARK   50  A    between atoms: _111  and  _112
REMARK   51  A    between atoms: _114  and  _116
REMARK   52  A    between atoms: _116  and  _117
REMARK   53  A    between atoms: _116  and  _119
REMARK   54  A    between atoms: _119  and  _120
REMARK   55  A    between atoms: _125  and  _127
REMARK   56  A    between atoms: _127  and  _128
REMARK   57  A    between atoms: _127  and  _130
REMARK   58  A    between atoms: _130  and  _131
REMARK   59  A    between atoms: _136  and  _137
REMARK   60  A    between atoms: _139  and  _141
REMARK   61  A    between atoms: _141  and  _142
REMARK   62  A    between atoms: _141  and  _144
REMARK   63  A    between atoms: _148  and  _149
REMARK   64  A    between atoms: _154  and  _156
REMARK   65  A    between atoms: _156  and  _157
REMARK   66  A    between atoms: _156  and  _159
REMARK   67  A    between atoms: _159  and  _160
REMARK   68  A    between atoms: _165  and  _166
REMARK   69  A    between atoms: _168  and  _170
REMARK   70  A    between atoms: _170  and  _171
REMARK   71  A    between atoms: _170  and  _173
REMARK   72  A    between atoms: _173  and  _174
REMARK   73  A    between atoms: _177  and  _179
REMARK   74  A    between atoms: _179  and  _180
REMARK   75  A    between atoms: _179  and  _182
REMARK   76  A    between atoms: _182  and  _183
REMARK   77  A    between atoms: _183  and  _184
REMARK   78  A    between atoms: _189  and  _191
REMARK   79  A    between atoms: _191  and  _192
REMARK   80  A    between atoms: _194  and  _196
REMARK   81  A    between atoms: _196  and  _197
REMARK   82  A    between atoms: _196  and  _199
REMARK   83  A    between atoms: _199  and  _200
REMARK   84  A    between atoms: _200  and  _201
REMARK   85  A    between atoms: _201  and  _202
REMARK   86  A    between atoms: _202  and  _203
REMARK   87  A    between atoms: _207  and  _209
REMARK   88  A    between atoms: _209  and  _210
REMARK   89  A    between atoms: _209  and  _212
REMARK   90  A    between atoms: _212  and  _213
REMARK   91  A    between atoms: _223  and  _225
REMARK   92  A    between atoms: _225  and  _226
REMARK   93  A    between atoms: _225  and  _228
REMARK   94  A    between atoms: _228  and  _229
REMARK   95  A    between atoms: _232  and  _234
REMARK   96  A    between atoms: _234  and  _235
REMARK   97  A    between atoms: _234  and  _237
REMARK   98  A    between atoms: _237  and  _238
REMARK   99  A    between atoms: _238  and  _239
REMARK  100  A    between atoms: _239  and  _240
REMARK  101  A    between atoms: _240  and  _241
REMARK  102  A    between atoms: _245  and  _247
REMARK  103  A    between atoms: _247  and  _248
REMARK  104  A    between atoms: _247  and  _250
REMARK  105  A    between atoms: _250  and  _251
REMARK  106  A    between atoms: _257  and  _259
REMARK  107  A    between atoms: _259  and  _260
REMARK  108  A    between atoms: _259  and  _262
REMARK  109  A    between atoms: _262  and  _263
REMARK  110  A    between atoms: _269  and  _271
REMARK  111  A    between atoms: _271  and  _272
REMARK  112  A    between atoms: _271  and  _274
REMARK  113  A    between atoms: _274  and  _275
REMARK  114  A    between atoms: _278  and  _280
REMARK  115  A    between atoms: _280  and  _281
REMARK  116  A    between atoms: _280  and  _283
REMARK  117  A    between atoms: _283  and  _284
REMARK  118  A    between atoms: _286  and  _288
REMARK  119  A    between atoms: _288  and  _289
REMARK  120  A    between atoms: _288  and  _291
REMARK  121  A    between atoms: _291  and  _292
REMARK  122  A    between atoms: _302  and  _304
REMARK  123  A    between atoms: _304  and  _305
REMARK  124  A    between atoms: _307  and  _309
REMARK  125  A    between atoms: _309  and  _310
REMARK  126  A    between atoms: _309  and  _312
REMARK  127  A    between atoms: _312  and  _313
REMARK  128  A    between atoms: _316  and  _318
REMARK  129  A    between atoms: _318  and  _319
REMARK  130  A    between atoms: _318  and  _321
REMARK  131  A    between atoms: _321  and  _322
REMARK  132  A    between atoms: _325  and  _327
REMARK  133  A    between atoms: _327  and  _328
REMARK  134  A    between atoms: _330  and  _332
REMARK  135  A    between atoms: _332  and  _333
REMARK  136  A    between atoms: _332  and  _335
REMARK  137  A    between atoms: _335  and  _336
REMARK  138  A    between atoms: _339  and  _341
REMARK  139  A    between atoms: _341  and  _342
REMARK  140  A    between atoms: _345  and  _347
REMARK  141  A    between atoms: _347  and  _348
REMARK  142  A    between atoms: _347  and  _350
REMARK  143  A    between atoms: _350  and  _351
REMARK  144  A    between atoms: _354  and  _356
REMARK  145  A    between atoms: _356  and  _357
REMARK  146  A    between atoms: _360  and  _362
REMARK  147  A    between atoms: _362  and  _363
REMARK  148  A    between atoms: _362  and  _365
REMARK  149  A    between atoms: _365  and  _366
REMARK  150  A    between atoms: _366  and  _367
REMARK  151  A    between atoms: _367  and  _368
REMARK  152  A    between atoms: _377  and  _379
REMARK  153  A    between atoms: _379  and  _380
REMARK  154  A    between atoms: _379  and  _382
REMARK  155  A    between atoms: _382  and  _383
REMARK  156  A    between atoms: _386  and  _388
REMARK  157  A    between atoms: _388  and  _389
REMARK  158  A    between atoms: _388  and  _391
REMARK  159  A    between atoms: _391  and  _392
REMARK  160  A    between atoms: _397  and  _398
REMARK  161  A    between atoms: _400  and  _402
REMARK  162  A    between atoms: _402  and  _403
REMARK  163  A    between atoms: _402  and  _405
REMARK  164  A    between atoms: _405  and  _406
REMARK  165  A    between atoms: _411  and  _412
REMARK  166  A    between atoms: _414  and  _416
REMARK  167  A    between atoms: _416  and  _417
REMARK  168  A    between atoms: _416  and  _419
REMARK  169  A    between atoms: _419  and  _420
REMARK  170  A    between atoms: _420  and  _421
REMARK  171  A    between atoms: _421  and  _422
REMARK  172  A    between atoms: _422  and  _423
REMARK  173  A    between atoms: _427  and  _429
REMARK  174  A    between atoms: _429  and  _430
REMARK  175  A    between atoms: _429  and  _432
REMARK  176  A    between atoms: _432  and  _433
REMARK  177  A    between atoms: _436  and  _438
REMARK  178  A    between atoms: _438  and  _439
REMARK  179  A    between atoms: _438  and  _441
REMARK  180  A    between atoms: _444  and  _446
REMARK  181  A    between atoms: _446  and  _447
REMARK  182  A    between atoms: _446  and  _449
REMARK  183  A    between atoms: _449  and  _450
REMARK  184  A    between atoms: _453  and  _455
REMARK  185  A    between atoms: _455  and  _456
REMARK  186  A    between atoms: _455  and  _458
REMARK  187  A    between atoms: _458  and  _459
REMARK  188  A    between atoms: _461  and  _463
REMARK  189  A    between atoms: _463  and  _464
REMARK  190  A    between atoms: _466  and  _468
REMARK  191  A    between atoms: _468  and  _469
REMARK  192  A    between atoms: _468  and  _471
REMARK  193  A    between atoms: _471  and  _472
REMARK  194  A    between atoms: _475  and  _477
REMARK  195  A    between atoms: _477  and  _478
REMARK  196  A    between atoms: _477  and  _480
REMARK  197  A    between atoms: _480  and  _481
REMARK  198  A    between atoms: _484  and  _486
REMARK  199  A    between atoms: _486  and  _487
REMARK  200  A    between atoms: _486  and  _489
REMARK  201  A    between atoms: _489  and  _490
REMARK  202  A    between atoms: _495  and  _497
REMARK  203  A    between atoms: _497  and  _498
REMARK  204  A    between atoms: _497  and  _500
REMARK  205  A    between atoms: _500  and  _501
REMARK  206  A    between atoms: _501  and  _502
REMARK  207  A    between atoms: _502  and  _503
REMARK  208  A    between atoms: _512  and  _514
REMARK  209  A    between atoms: _514  and  _515
REMARK  210  A    between atoms: _514  and  _517
REMARK  211  A    between atoms: _517  and  _518
REMARK  212  A    between atoms: _518  and  _519
REMARK  213  A    between atoms: _519  and  _520
REMARK  214  A    between atoms: _529  and  _531
REMARK  215  A    between atoms: _531  and  _532
REMARK  216  A    between atoms: _531  and  _534
REMARK  217  A    between atoms: _534  and  _535
REMARK  218  A    between atoms: _537  and  _539
REMARK  219  A    between atoms: _539  and  _540
REMARK  220  A    between atoms: _539  and  _542
REMARK  221  A    between atoms: _542  and  _543
REMARK  222  A    between atoms: _543  and  _544
REMARK  223  A    between atoms: _549  and  _551
REMARK  224  A    between atoms: _551  and  _552
REMARK  225  A    between atoms: _551  and  _554
REMARK  226  A    between atoms: _554  and  _555
REMARK  227  A    between atoms: _557  and  _559
REMARK  228  A    between atoms: _559  and  _560
REMARK  229  A    between atoms: _559  and  _562
REMARK  230  A    between atoms: _562  and  _563
REMARK  231  A    between atoms: _565  and  _567
REMARK  232  A    between atoms: _567  and  _568
REMARK  233  A    between atoms: _567  and  _570
REMARK  234  A    between atoms: _570  and  _571
REMARK  235  A    between atoms: _574  and  _576
REMARK  236  A    between atoms: _576  and  _577
REMARK  237  A    between atoms: _576  and  _579
REMARK  238  A    between atoms: _579  and  _580
REMARK  239  A    between atoms: _583  and  _585
REMARK  240  A    between atoms: _585  and  _586
REMARK  241  A    between atoms: _585  and  _588
REMARK  242  A    between atoms: _591  and  _593
REMARK  243  A    between atoms: _593  and  _594
REMARK  244  A    between atoms: _596  and  _598
REMARK  245  A    between atoms: _598  and  _599
REMARK  246  A    between atoms: _602  and  _604
REMARK  247  A    between atoms: _604  and  _605
REMARK  248  A    between atoms: _604  and  _607
REMARK                            x       y       z     vdW  Elec       q    Type
REMARK                         _______ _______ _______ _____ _____    ______ ____
ROOT
ATOM      1  CA  THR A   5      19.923  16.314  24.125  0.00  0.00    +0.176 C 
ENDROOT
BRANCH   1   2
ATOM      2  C   THR A   5      20.768  17.113  23.163  0.00  0.00    +0.243 C 
ATOM      3  O   THR A   5      20.671  18.334  23.093  0.00  0.00    -0.273 OA
ATOM      4  N   GLN A   6      21.600  16.409  22.408  0.00  0.00    -0.297 N 
ATOM      5  H   GLN A   6      21.650  15.377  22.523  0.00  0.00    +0.150 HD
BRANCH   4   6
ATOM      6  CA  GLN A   6      22.439  17.062  21.426  0.00  0.00    +0.149 C 
BRANCH   6   7
ATOM      7  C   GLN A   6      22.409  16.249  20.151  0.00  0.00    +0.241 C 
ATOM      8  O   GLN A   6      22.975  15.160  20.096  0.00  0.00    -0.273 OA
ATOM      9  N   GLY A   7      21.743  16.786  19.135  0.00  0.00    -0.295 N 
ATOM     10  H   GLY A   7      21.294  17.717  19.254  0.00  0.00    +0.150 HD
BRANCH   9  11
ATOM     11  CA  GLY A   7      21.630  16.099  17.863  0.00  0.00    +0.176 C 
BRANCH  11  12
ATOM     12  C   GLY A   7      20.215  15.590  17.654  0.00  0.00    +0.243 C 
ATOM     13  O   GLY A   7      19.491  15.329  18.615  0.00  0.00    -0.273 OA
ATOM     14  N   LYS A   8      19.813  15.438  16.397  0.00  0.00    -0.297 N 
ATOM     15  H   LYS A   8      20.461  15.668  15.617  0.00  0.00    +0.150 HD
BRANCH  14  16
ATOM     16  CA  LYS A   8      18.473  14.952  16.103  0.00  0.00    +0.149 C 
BRANCH  16  17
ATOM     17  C   LYS A   8      18.378  14.376  14.697  0.00  0.00    +0.241 C 
ATOM     18  N   TRP A   9      17.380  13.523  14.487  0.00  0.00    -0.298 N 
ATOM     19  H   TRP A   9      16.755  13.267  15.278  0.00  0.00    +0.150 HD
ATOM     20  O   LYS A   8      19.199  14.683  13.827  0.00  0.00    -0.273 OA
BRANCH  18  21
ATOM     21  CA  TRP A   9      17.142  12.938  13.173  0.00  0.00    +0.141 C 
BRANCH  21  22
ATOM     22  C   TRP A   9      15.667  12.624  12.969  0.00  0.00    +0.227 C 
ATOM     23  O   TRP A   9      14.899  12.534  13.921  0.00  0.00    -0.286 OA
ENDBRANCH  21  22
BRANCH  21  24
ATOM     24  CB  TRP A   9      17.995  11.671  12.938  0.00  0.00    +0.056 C 
BRANCH  24  25
ATOM     25  CG  TRP A   9      17.866  10.549  13.961  0.00  0.00    -0.002 A 
ATOM     26  CD1 TRP A   9      18.804  10.177  14.890  0.00  0.00    +0.068 A 
ATOM     27  NE1 TRP A   9      18.338   9.122  15.638  0.00  0.00    -0.352 N 
ATOM     28  HE1 TRP A   9      18.855   8.652  16.408  0.00  0.00    +0.166 HD
ATOM     29  CE2 TRP A   9      17.080   8.789  15.204  0.00  0.00    +0.056 A 
ATOM     30  CZ2 TRP A   9      16.212   7.798  15.654  0.00  0.00    +0.017 A 
ATOM     31  CH2 TRP A   9      14.998   7.691  15.028  0.00  0.00    +0.001 A 
ATOM     32  CZ3 TRP A   9      14.638   8.543  13.973  0.00  0.00    +0.000 A 
ATOM     33  CE3 TRP A   9      15.501   9.530  13.522  0.00  0.00    +0.001 A 
ATOM     34  CD2 TRP A   9      16.749   9.665  14.146  0.00  0.00    +0.013 A 
ENDBRANCH  24  25
ENDBRANCH  21  24
ENDBRANCH  18  21
ENDBRANCH  16  17
BRANCH  16  35
ATOM     35  CB  LYS A   8      17.463  16.092  16.236  0.00  0.00    +0.029 C 
BRANCH  35  36
ATOM     36  CG  LYS A   8      17.728  17.238  15.262  0.00  0.00    +0.000 C 
BRANCH  36  37
ATOM     37  CD  LYS A   8      16.617  18.284  15.272  0.00  0.00    -0.024 C 
BRANCH  37  38
ATOM     38  CE  LYS A   8      16.395  18.862  16.659  0.00  0.00    -0.086 C 
BRANCH  38  39
ATOM     39  NZ  LYS A   8      17.578  19.606  17.168  0.00  0.00    +0.380 N 
ATOM     40  HZ1 LYS A   8      17.370  19.978  18.117  0.00  0.00    -0.089 HD
ATOM     41  HZ2 LYS A   8      18.395  18.964  17.217  0.00  0.00    -0.089 HD
ATOM     42  HZ3 LYS A   8      17.793  20.394  16.525  0.00  0.00    -0.089 HD
ENDBRANCH  38  39
ENDBRANCH  37  38
ENDBRANCH  36  37
ENDBRANCH  35  36
ENDBRANCH  16  35
ENDBRANCH  14  16
ENDBRANCH  11  12
ENDBRANCH   9  11
ENDBRANCH   6   7
BRANCH   6  43
ATOM     43  CB  GLN A   6      23.867  17.167  21.927  0.00  0.00    +0.039 C 
BRANCH  43  44
ATOM     44  CG  GLN A   6      24.807  17.765  20.911  0.00  0.00    +0.087 C 
BRANCH  44  45
ATOM     45  CD  GLN A   6      26.224  17.795  21.418  0.00  0.00    +0.219 C 
ATOM     46  OE1 GLN A   6      26.535  18.514  22.368  0.00  0.00    -0.275 OA
ATOM     47  NE2 GLN A   6      27.090  17.000  20.802  0.00  0.00    -0.329 N 
ATOM     48 HE21 GLN A   6      28.080  16.966  21.118  0.00  0.00    +0.145 HD
ATOM     49 HE22 GLN A   6      26.778  16.411  20.003  0.00  0.00    +0.145 HD
ENDBRANCH  44  45
ENDBRANCH  43  44
ENDBRANCH   6  43
ENDBRANCH   4   6
ENDBRANCH   1   2
BRANCH   1  51
ATOM     50  C   TYR A   4      18.814  15.251  22.253  0.00  0.00    +0.241 C 
ATOM     51  N   THR A   5      19.461  15.140  23.407  0.00  0.00    -0.295 N 
ATOM     52  H   THR A   5      19.640  14.195  23.804  0.00  0.00    +0.150 HD
ATOM     53  O   TYR A   4      18.555  16.334  21.726  0.00  0.00    -0.273 OA
BRANCH  50  54
ATOM     54  CA  TYR A   4      18.408  13.945  21.585  0.00  0.00    +0.153 C 
BRANCH  54  57
ATOM     55  C   PRO A   3      16.309  14.616  20.580  0.00  0.00    +0.241 C 
ATOM     56  O   PRO A   3      15.751  14.614  21.676  0.00  0.00    -0.273 OA
ATOM     57  N   TYR A   4      17.584  14.274  20.427  0.00  0.00    -0.297 N 
ATOM     58  H   TYR A   4      17.998  14.241  19.474  0.00  0.00    +0.150 HD
BRANCH  55  64
ATOM     59  C   VAL A   2      15.096  12.922  18.041  0.00  0.00    +0.244 C 
ATOM     60  N   PRO A   3      14.721  13.794  18.980  0.00  0.00    -0.272 N 
ATOM     61  CD  PRO A   3      13.358  13.919  19.530  0.00  0.00    +0.094 C 
ATOM     62  CG  PRO A   3      13.395  15.277  20.247  0.00  0.00    +0.024 C 
ATOM     63  CB  PRO A   3      14.480  16.044  19.548  0.00  0.00    +0.031 C 
ATOM     64  CA  PRO A   3      15.530  14.964  19.311  0.00  0.00    +0.152 C 
ATOM     65  O   VAL A   2      16.116  13.076  17.371  0.00  0.00    -0.273 OA
BRANCH  59  66
ATOM     66  CA  VAL A   2      14.174  11.741  17.806  0.00  0.00    +0.149 C 
BRANCH  66  69
ATOM     67  C   TYR A   1      12.167  11.661  16.475  0.00  0.00    +0.239 C 
ATOM     68  O   TYR A   1      11.483  11.433  17.466  0.00  0.00    -0.274 OA
ATOM     69  N   VAL A   2      13.486  11.807  16.531  0.00  0.00    -0.297 N 
ATOM     70  H   VAL A   2      14.027  11.969  15.658  0.00  0.00    +0.150 HD
BRANCH  67  71
ATOM     71  CA  TYR A   1      11.522  11.765  15.101  0.00  0.00    +0.149 C 
BRANCH  71  72
ATOM     72  N   TYR A   1      10.647  10.624  14.861  0.00  0.00    -0.238 NA
ATOM     73  H   TYR A   1      10.016  10.299  15.621  0.00  0.00    +0.142 HD
ENDBRANCH  71  72
BRANCH  71  74
ATOM     74  CB  TYR A   1      10.695  13.049  15.015  0.00  0.00    +0.053 C 
BRANCH  74  75
ATOM     75  CG  TYR A   1      11.406  14.300  15.474  0.00  0.00    -0.020 A 
ATOM     76  CD2 TYR A   1      10.883  15.077  16.502  0.00  0.00    -0.001 A 
ATOM     77  CE2 TYR A   1      11.504  16.254  16.898  0.00  0.00    +0.036 A 
ATOM     78  CZ  TYR A   1      12.663  16.663  16.265  0.00  0.00    +0.134 A 
ATOM     79  CE1 TYR A   1      13.206  15.905  15.246  0.00  0.00    +0.036 A 
ATOM     80  CD1 TYR A   1      12.575  14.729  14.856  0.00  0.00    -0.001 A 
BRANCH  78  81
ATOM     81  OH  TYR A   1      13.264  17.847  16.636  0.00  0.00    -0.506 OA
ATOM     82  HH  TYR A   1      14.076  17.989  16.088  0.00  0.00    +0.292 HD
ENDBRANCH  78  81
ENDBRANCH  74  75
ENDBRANCH  71  74
ENDBRANCH  67  71
ENDBRANCH  66  69
BRANCH  66  83
ATOM     83  CB  VAL A   2      15.021  10.464  17.955  0.00  0.00    +0.027 C 
ATOM     84  CG2 VAL A   2      15.823  10.546  19.247  0.00  0.00    +0.002 C 
ATOM     85  CG1 VAL A   2      14.120   9.236  17.986  0.00  0.00    +0.002 C 
ENDBRANCH  66  83
ENDBRANCH  59  66
ENDBRANCH  55  64
ENDBRANCH  54  57
BRANCH  54  86
ATOM     86  CB  TYR A   4      19.676  13.209  21.159  0.00  0.00    +0.055 C 
BRANCH  86  87
ATOM     87  CG  TYR A   4      19.433  11.896  20.453  0.00  0.00    -0.020 A 
ATOM     88  CD2 TYR A   4      19.198  10.729  21.166  0.00  0.00    -0.001 A 
ATOM     89  CE2 TYR A   4      19.007   9.512  20.503  0.00  0.00    +0.036 A 
ATOM     90  CZ  TYR A   4      19.048   9.474  19.121  0.00  0.00    +0.134 A 
ATOM     91  CE1 TYR A   4      19.276  10.624  18.403  0.00  0.00    +0.036 A 
ATOM     92  CD1 TYR A   4      19.467  11.823  19.066  0.00  0.00    -0.001 A 
BRANCH  90  93
ATOM     93  OH  TYR A   4      18.859   8.288  18.433  0.00  0.00    -0.506 OA
ATOM     94  HH  TYR A   4      18.707   7.554  19.079  0.00  0.00    +0.292 HD
ENDBRANCH  90  93
ENDBRANCH  86  87
ENDBRANCH  54  86
ENDBRANCH  50  54
ENDBRANCH   1  51
BRANCH   1  95
ATOM     95  CB  THR A   5      20.767  15.913  25.333  0.00  0.00    +0.137 C 
ATOM     96  CG2 THR A   5      21.288  17.148  26.059  0.00  0.00    +0.034 C 
BRANCH  95  97
ATOM     97  OG1 THR A   5      19.955  15.146  26.221  0.00  0.00    -0.382 OA
ATOM     98  HG1 THR A   5      20.491  14.879  27.009  0.00  0.00    +0.210 HD
ENDBRANCH  95  97
ENDBRANCH   1  95
TORSDOF 36
REMARK  Name = ../refined-set-2016/2qmg/2qmg_pocket.pdb
REMARK  248 active torsions:
REMARK  status: ('A' for Active; 'I' for Inactive)
REMARK    1  A    between atoms: _1  and  _3
REMARK    2  A    between atoms: _3  and  _4
REMARK    3  A    between atoms: _3  and  _6
REMARK    4  A    between atoms: _6  and  _7
REMARK    5  A    between atoms: _7  and  _8
REMARK    6  A    between atoms: _8  and  _9
REMARK    7  A    between atoms: _9  and  _10
REMARK    8  A    between atoms: _14  and  _16
REMARK    9  A    between atoms: _16  and  _17
REMARK   10  A    between atoms: _16  and  _19
REMARK   11  A    between atoms: _19  and  _20
REMARK   12  A    between atoms: _22  and  _24
REMARK   13  A    between atoms: _24  and  _25
REMARK   14  A    between atoms: _27  and  _29
REMARK   15  A    between atoms: _29  and  _30
REMARK   16  A    between atoms: _29  and  _32
REMARK   17  A    between atoms: _32  and  _33
REMARK   18  A    between atoms: _33  and  _34
REMARK   19  A    between atoms: _39  and  _41
REMARK   20  A    between atoms: _41  and  _42
REMARK   21  A    between atoms: _44  and  _46
REMARK   22  A    between atoms: _46  and  _47
REMARK   23  A    between atoms: _46  and  _49
REMARK   24  A    between atoms: _49  and  _50
REMARK   25  A    between atoms: _55  and  _56
REMARK   26  A    between atoms: _58  and  _60
REMARK   27  A    between atoms: _60  and  _61
REMARK   28  A    between atoms: _60  and  _63
REMARK   29  A    between atoms: _63  and  _64
REMARK   30  A    between atoms: _67  and  _69
REMARK   31  A    between atoms: _69  and  _70
REMARK   32  A    between atoms: _69  and  _72
REMARK   33  A    between atoms: _75  and  _77
REMARK   34  A    between atoms: _77  and  _78
REMARK   35  A    between atoms: _77  and  _80
REMARK   36  A    between atoms: _80  and  _81
REMARK   37  A    between atoms: _84  and  _86
REMARK   38  A    between atoms: _86  and  _87
REMARK   39  A    between atoms: _86  and  _89
REMARK   40  A    between atoms: _89  and  _90
REMARK   41  A    between atoms: _93  and  _95
REMARK   42  A    between atoms: _95  and  _96
REMARK   43  A    between atoms: _98  and  _100
REMARK   44  A    between atoms: _100  and  _101
REMARK   45  A    between atoms: _100  and  _103
REMARK   46  A    between atoms: _103  and  _104
REMARK   47  A    between atoms: _106  and  _108
REMARK   48  A    between atoms: _108  and  _109
REMARK   49  A    between atoms: _108  and  _111
REMARK   50  A    between atoms: _111  and  _112
REMARK   51  A    between atoms: _114  and  _116
REMARK   52  A    between atoms: _116  and  _117
REMARK   53  A    between atoms: _116  and  _119
REMARK   54  A    between atoms: _119  and  _120
REMARK   55  A    between atoms: _125  and  _127
REMARK   56  A    between atoms: _127  and  _128
REMARK   57  A    between atoms: _127  and  _130
REMARK   58  A    between atoms: _130  and  _131
REMARK   59  A    between atoms: _136  and  _137
REMARK   60  A    between atoms: _139  and  _141
REMARK   61  A    between atoms: _141  and  _142
REMARK   62  A    between atoms: _141  and  _144
REMARK   63  A    between atoms: _148  and  _149
REMARK   64  A    between atoms: _154  and  _156
REMARK   65  A    between atoms: _156  and  _157
REMARK   66  A    between atoms: _156  and  _159
REMARK   67  A    between atoms: _159  and  _160
REMARK   68  A    between atoms: _165  and  _166
REMARK   69  A    between atoms: _168  and  _170
REMARK   70  A    between atoms: _170  and  _171
REMARK   71  A    between atoms: _170  and  _173
REMARK   72  A    between atoms: _173  and  _174
REMARK   73  A    between atoms: _177  and  _179
REMARK   74  A    between atoms: _179  and  _180
REMARK   75  A    between atoms: _179  and  _182
REMARK   76  A    between atoms: _182  and  _183
REMARK   77  A    between atoms: _183  and  _184
REMARK   78  A    between atoms: _189  and  _191
REMARK   79  A    between atoms: _191  and  _192
REMARK   80  A    between atoms: _194  and  _196
REMARK   81  A    between atoms: _196  and  _197
REMARK   82  A    between atoms: _196  and  _199
REMARK   83  A    between atoms: _199  and  _200
REMARK   84  A    between atoms: _200  and  _201
REMARK   85  A    between atoms: _201  and  _202
REMARK   86  A    between atoms: _202  and  _203
REMARK   87  A    between atoms: _207  and  _209
REMARK   88  A    between atoms: _209  and  _210
REMARK   89  A    between atoms: _209  and  _212
REMARK   90  A    between atoms: _212  and  _213
REMARK   91  A    between atoms: _223  and  _225
REMARK   92  A    between atoms: _225  and  _226
REMARK   93  A    between atoms: _225  and  _228
REMARK   94  A    between atoms: _228  and  _229
REMARK   95  A    between atoms: _232  and  _234
REMARK   96  A    between atoms: _234  and  _235
REMARK   97  A    between atoms: _234  and  _237
REMARK   98  A    between atoms: _237  and  _238
REMARK   99  A    between atoms: _238  and  _239
REMARK  100  A    between atoms: _239  and  _240
REMARK  101  A    between atoms: _240  and  _241
REMARK  102  A    between atoms: _245  and  _247
REMARK  103  A    between atoms: _247  and  _248
REMARK  104  A    between atoms: _247  and  _250
REMARK  105  A    between atoms: _250  and  _251
REMARK  106  A    between atoms: _257  and  _259
REMARK  107  A    between atoms: _259  and  _260
REMARK  108  A    between atoms: _259  and  _262
REMARK  109  A    between atoms: _262  and  _263
REMARK  110  A    between atoms: _269  and  _271
REMARK  111  A    between atoms: _271  and  _272
REMARK  112  A    between atoms: _271  and  _274
REMARK  113  A    between atoms: _274  and  _275
REMARK  114  A    between atoms: _278  and  _280
REMARK  115  A    between atoms: _280  and  _281
REMARK  116  A    between atoms: _280  and  _283
REMARK  117  A    between atoms: _283  and  _284
REMARK  118  A    between atoms: _286  and  _288
REMARK  119  A    between atoms: _288  and  _289
REMARK  120  A    between atoms: _288  and  _291
REMARK  121  A    between atoms: _291  and  _292
REMARK  122  A    between atoms: _302  and  _304
REMARK  123  A    between atoms: _304  and  _305
REMARK  124  A    between atoms: _307  and  _309
REMARK  125  A    between atoms: _309  and  _310
REMARK  126  A    between atoms: _309  and  _312
REMARK  127  A    between atoms: _312  and  _313
REMARK  128  A    between atoms: _316  and  _318
REMARK  129  A    between atoms: _318  and  _319
REMARK  130  A    between atoms: _318  and  _321
REMARK  131  A    between atoms: _321  and  _322
REMARK  132  A    between atoms: _325  and  _327
REMARK  133  A    between atoms: _327  and  _328
REMARK  134  A    between atoms: _330  and  _332
REMARK  135  A    between atoms: _332  and  _333
REMARK  136  A    between atoms: _332  and  _335
REMARK  137  A    between atoms: _335  and  _336
REMARK  138  A    between atoms: _339  and  _341
REMARK  139  A    between atoms: _341  and  _342
REMARK  140  A    between atoms: _345  and  _347
REMARK  141  A    between atoms: _347  and  _348
REMARK  142  A    between atoms: _347  and  _350
REMARK  143  A    between atoms: _350  and  _351
REMARK  144  A    between atoms: _354  and  _356
REMARK  145  A    between atoms: _356  and  _357
REMARK  146  A    between atoms: _360  and  _362
REMARK  147  A    between atoms: _362  and  _363
REMARK  148  A    between atoms: _362  and  _365
REMARK  149  A    between atoms: _365  and  _366
REMARK  150  A    between atoms: _366  and  _367
REMARK  151  A    between atoms: _367  and  _368
REMARK  152  A    between atoms: _377  and  _379
REMARK  153  A    between atoms: _379  and  _380
REMARK  154  A    between atoms: _379  and  _382
REMARK  155  A    between atoms: _382  and  _383
REMARK  156  A    between atoms: _386  and  _388
REMARK  157  A    between atoms: _388  and  _389
REMARK  158  A    between atoms: _388  and  _391
REMARK  159  A    between atoms: _391  and  _392
REMARK  160  A    between atoms: _397  and  _398
REMARK  161  A    between atoms: _400  and  _402
REMARK  162  A    between atoms: _402  and  _403
REMARK  163  A    between atoms: _402  and  _405
REMARK  164  A    between atoms: _405  and  _406
REMARK  165  A    between atoms: _411  and  _412
REMARK  166  A    between atoms: _414  and  _416
REMARK  167  A    between atoms: _416  and  _417
REMARK  168  A    between atoms: _416  and  _419
REMARK  169  A    between atoms: _419  and  _420
REMARK  170  A    between atoms: _420  and  _421
REMARK  171  A    between atoms: _421  and  _422
REMARK  172  A    between atoms: _422  and  _423
REMARK  173  A    between atoms: _427  and  _429
REMARK  174  A    between atoms: _429  and  _430
REMARK  175  A    between atoms: _429  and  _432
REMARK  176  A    between atoms: _432  and  _433
REMARK  177  A    between atoms: _436  and  _438
REMARK  178  A    between atoms: _438  and  _439
REMARK  179  A    between atoms: _438  and  _441
REMARK  180  A    between atoms: _444  and  _446
REMARK  181  A    between atoms: _446  and  _447
REMARK  182  A    between atoms: _446  and  _449
REMARK  183  A    between atoms: _449  and  _450
REMARK  184  A    between atoms: _453  and  _455
REMARK  185  A    between atoms: _455  and  _456
REMARK  186  A    between atoms: _455  and  _458
REMARK  187  A    between atoms: _458  and  _459
REMARK  188  A    between atoms: _461  and  _463
REMARK  189  A    between atoms: _463  and  _464
REMARK  190  A    between atoms: _466  and  _468
REMARK  191  A    between atoms: _468  and  _469
REMARK  192  A    between atoms: _468  and  _471
REMARK  193  A    between atoms: _471  and  _472
REMARK  194  A    between atoms: _475  and  _477
REMARK  195  A    between atoms: _477  and  _478
REMARK  196  A    between atoms: _477  and  _480
REMARK  197  A    between atoms: _480  and  _481
REMARK  198  A    between atoms: _484  and  _486
REMARK  199  A    between atoms: _486  and  _487
REMARK  200  A    between atoms: _486  and  _489
REMARK  201  A    between atoms: _489  and  _490
REMARK  202  A    between atoms: _495  and  _497
REMARK  203  A    between atoms: _497  and  _498
REMARK  204  A    between atoms: _497  and  _500
REMARK  205  A    between atoms: _500  and  _501
REMARK  206  A    between atoms: _501  and  _502
REMARK  207  A    between atoms: _502  and  _503
REMARK  208  A    between atoms: _512  and  _514
REMARK  209  A    between atoms: _514  and  _515
REMARK  210  A    between atoms: _514  and  _517
REMARK  211  A    between atoms: _517  and  _518
REMARK  212  A    between atoms: _518  and  _519
REMARK  213  A    between atoms: _519  and  _520
REMARK  214  A    between atoms: _529  and  _531
REMARK  215  A    between atoms: _531  and  _532
REMARK  216  A    between atoms: _531  and  _534
REMARK  217  A    between atoms: _534  and  _535
REMARK  218  A    between atoms: _537  and  _539
REMARK  219  A    between atoms: _539  and  _540
REMARK  220  A    between atoms: _539  and  _542
REMARK  221  A    between atoms: _542  and  _543
REMARK  222  A    between atoms: _543  and  _544
REMARK  223  A    between atoms: _549  and  _551
REMARK  224  A    between atoms: _551  and  _552
REMARK  225  A    between atoms: _551  and  _554
REMARK  226  A    between atoms: _554  and  _555
REMARK  227  A    between atoms: _557  and  _559
REMARK  228  A    between atoms: _559  and  _560
REMARK  229  A    between atoms: _559  and  _562
REMARK  230  A    between atoms: _562  and  _563
REMARK  231  A    between atoms: _565  and  _567
REMARK  232  A    between atoms: _567  and  _568
REMARK  233  A    between atoms: _567  and  _570
REMARK  234  A    between atoms: _570  and  _571
REMARK  235  A    between atoms: _574  and  _576
REMARK  236  A    between atoms: _576  and  _577
REMARK  237  A    between atoms: _576  and  _579
REMARK  238  A    between atoms: _579  and  _580
REMARK  239  A    between atoms: _583  and  _585
REMARK  240  A    between atoms: _585  and  _586
REMARK  241  A    between atoms: _585  and  _588
REMARK  242  A    between atoms: _591  and  _593
REMARK  243  A    between atoms: _593  and  _594
REMARK  244  A    between atoms: _596  and  _598
REMARK  245  A    between atoms: _598  and  _599
REMARK  246  A    between atoms: _602  and  _604
REMARK  247  A    between atoms: _604  and  _605
REMARK  248  A    between atoms: _604  and  _607
REMARK                            x       y       z     vdW  Elec       q    Type
REMARK                         _______ _______ _______ _____ _____    ______ ____
ROOT
ATOM      1  CA  PHE A   3      23.669  13.758  14.518  0.00  0.00    +0.153 C 
ENDROOT
BRANCH   1   4
ATOM      2  C   LYS A   2      24.113  16.131  14.760  0.00  0.00    +0.241 C 
ATOM      3  O   LYS A   2      24.409  15.989  15.944  0.00  0.00    -0.273 OA
ATOM      4  N   PHE A   3      23.728  15.118  13.991  0.00  0.00    -0.297 N 
ATOM      5  H   PHE A   3      23.465  15.296  13.001  0.00  0.00    +0.150 HD
BRANCH   2   6
ATOM      6  CA  LYS A   2      24.164  17.512  14.113  0.00  0.00    +0.149 C 
BRANCH   6   9
ATOM      7  C   ASP A   1      21.825  17.555  13.377  0.00  0.00    +0.239 C 
ATOM      8  O   ASP A   1      21.388  17.225  14.483  0.00  0.00    -0.274 OA
ATOM      9  N   LYS A   2      23.119  17.706  13.112  0.00  0.00    -0.297 N 
ATOM     10  H   LYS A   2      23.400  17.975  12.147  0.00  0.00    +0.150 HD
BRANCH   7  11
ATOM     11  CA  ASP A   1      20.877  17.797  12.207  0.00  0.00    +0.156 C 
BRANCH  11  12
ATOM     12  N   ASP A   1      20.215  16.542  11.885  0.00  0.00    -0.238 NA
ATOM     13  H   ASP A   1      19.886  15.929  12.658  0.00  0.00    +0.142 HD
ENDBRANCH  11  12
BRANCH  11  14
ATOM     14  CB  ASP A   1      19.831  18.853  12.580  0.00  0.00    +0.140 C 
BRANCH  14  15
ATOM     15  CG  ASP A   1      20.437  20.230  12.802  0.00  0.00    +0.367 C 
ATOM     16  OD2 ASP A   1      19.694  21.134  13.238  0.00  0.00    -0.246 OA
ATOM     17  OD1 ASP A   1      21.645  20.412  12.538  0.00  0.00    -0.246 OA
ENDBRANCH  14  15
ENDBRANCH  11  14
ENDBRANCH   7  11
ENDBRANCH   6   9
BRANCH   6  18
ATOM     18  CB  LYS A   2      24.060  18.576  15.210  0.00  0.00    +0.029 C 
BRANCH  18  19
ATOM     19  CG  LYS A   2      24.180  20.008  14.720  0.00  0.00    +0.000 C 
BRANCH  19  20
ATOM     20  CD  LYS A   2      23.960  20.979  15.872  0.00  0.00    -0.024 C 
BRANCH  20  21
ATOM     21  CE  LYS A   2      23.962  22.424  15.400  0.00  0.00    -0.086 C 
BRANCH  21  22
ATOM     22  NZ  LYS A   2      23.806  23.375  16.542  0.00  0.00    +0.380 N 
ATOM     23  HZ1 LYS A   2      24.593  23.246  17.209  0.00  0.00    -0.089 HD
ATOM     24  HZ2 LYS A   2      22.905  23.188  17.026  0.00  0.00    -0.089 HD
ATOM     25  HZ3 LYS A   2      23.812  24.351  16.182  0.00  0.00    -0.089 HD
ENDBRANCH  21  22
ENDBRANCH  20  21
ENDBRANCH  19  20
ENDBRANCH  18  19
ENDBRANCH   6  18
ENDBRANCH   2   6
ENDBRANCH   1   4
BRANCH   1  26
ATOM     26  C   PHE A   3      24.926  13.023  14.065  0.00  0.00    +0.241 C 
ATOM     27  O   PHE A   3      25.753  12.621  14.891  0.00  0.00    -0.273 OA
ATOM     28  N   PHE A   4      25.081  12.858  12.752  0.00  0.00    -0.297 N 
ATOM     29  H   PHE A   4      24.357  13.218  12.098  0.00  0.00    +0.150 HD
BRANCH  28  30
ATOM     30  CA  PHE A   4      26.257  12.177  12.225  0.00  0.00    +0.153 C 
BRANCH  30  31
ATOM     31  C   PHE A   4      27.493  13.029  12.451  0.00  0.00    +0.241 C 
ATOM     32  N   ILE A   5      28.610  12.362  12.719  0.00  0.00    -0.298 N 
ATOM     33  H   ILE A   5      28.581  11.323  12.735  0.00  0.00    +0.150 HD
ATOM     34  O   PHE A   4      27.431  14.257  12.386  0.00  0.00    -0.273 OA
BRANCH  32  35
ATOM     35  CA  ILE A   5      29.875  13.032  12.991  0.00  0.00    +0.137 C 
BRANCH  35  36
ATOM     36  C   ILE A   5      30.898  12.750  11.900  0.00  0.00    +0.227 C 
ATOM     37  O   ILE A   5      31.126  11.601  11.529  0.00  0.00    -0.286 OA
ENDBRANCH  35  36
BRANCH  35  38
ATOM     38  CB  ILE A   5      30.456  12.547  14.337  0.00  0.00    +0.026 C 
ATOM     39  CG2 ILE A   5      31.783  13.238  14.618  0.00  0.00    +0.002 C 
BRANCH  38  40
ATOM     40  CG1 ILE A   5      29.447  12.802  15.456  0.00  0.00    +0.002 C 
ATOM     41  CD1 ILE A   5      29.861  12.222  16.786  0.00  0.00    +0.000 C 
ENDBRANCH  38  40
ENDBRANCH  35  38
ENDBRANCH  32  35
ENDBRANCH  30  31
BRANCH  30  42
ATOM     42  CB  PHE A   4      26.088  11.869  10.736  0.00  0.00    +0.055 C 
BRANCH  42  43
ATOM     43  CG  PHE A   4      24.962  10.916  10.452  0.00  0.00    -0.020 A 
ATOM     44  CD2 PHE A   4      25.004   9.616  10.938  0.00  0.00    -0.004 A 
ATOM     45  CE2 PHE A   4      23.945   8.744  10.719  0.00  0.00    -0.000 A 
ATOM     46  CZ  PHE A   4      22.835   9.168  10.012  0.00  0.00    -0.000 A 
ATOM     47  CE1 PHE A   4      22.785  10.462   9.522  0.00  0.00    -0.000 A 
ATOM     48  CD1 PHE A   4      23.850  11.327   9.744  0.00  0.00    -0.004 A 
ENDBRANCH  42  43
ENDBRANCH  30  42
ENDBRANCH  28  30
ENDBRANCH   1  26
BRANCH   1  49
ATOM     49  CB  PHE A   3      22.411  13.032  14.014  0.00  0.00    +0.055 C 
BRANCH  49  50
ATOM     50  CG  PHE A   3      22.325  11.586  14.448  0.00  0.00    -0.020 A 
ATOM     51  CD2 PHE A   3      22.194  11.256  15.789  0.00  0.00    -0.004 A 
ATOM     52  CE2 PHE A   3      22.149   9.923  16.197  0.00  0.00    -0.000 A 
ATOM     53  CZ  PHE A   3      22.235   8.909  15.257  0.00  0.00    -0.000 A 
ATOM     54  CE1 PHE A   3      22.365   9.225  13.912  0.00  0.00    -0.000 A 
ATOM     55  CD1 PHE A   3      22.409  10.559  13.514  0.00  0.00    -0.004 A 
ENDBRANCH  49  50
ENDBRANCH   1  49
TORSDOF 23
REMARK  Name = ../refined-set-2016/2qmg/2qmg_pocket.pdb
REMARK  248 active torsions:
REMARK  status: ('A' for Active; 'I' for Inactive)
REMARK    1  A    between atoms: _1  and  _3
REMARK    2  A    between atoms: _3  and  _4
REMARK    3  A    between atoms: _3  and  _6
REMARK    4  A    between atoms: _6  and  _7
REMARK    5  A    between atoms: _7  and  _8
REMARK    6  A    between atoms: _8  and  _9
REMARK    7  A    between atoms: _9  and  _10
REMARK    8  A    between atoms: _14  and  _16
REMARK    9  A    between atoms: _16  and  _17
REMARK   10  A    between atoms: _16  and  _19
REMARK   11  A    between atoms: _19  and  _20
REMARK   12  A    between atoms: _22  and  _24
REMARK   13  A    between atoms: _24  and  _25
REMARK   14  A    between atoms: _27  and  _29
REMARK   15  A    between atoms: _29  and  _30
REMARK   16  A    between atoms: _29  and  _32
REMARK   17  A    between atoms: _32  and  _33
REMARK   18  A    between atoms: _33  and  _34
REMARK   19  A    between atoms: _39  and  _41
REMARK   20  A    between atoms: _41  and  _42
REMARK   21  A    between atoms: _44  and  _46
REMARK   22  A    between atoms: _46  and  _47
REMARK   23  A    between atoms: _46  and  _49
REMARK   24  A    between atoms: _49  and  _50
REMARK   25  A    between atoms: _55  and  _56
REMARK   26  A    between atoms: _58  and  _60
REMARK   27  A    between atoms: _60  and  _61
REMARK   28  A    between atoms: _60  and  _63
REMARK   29  A    between atoms: _63  and  _64
REMARK   30  A    between atoms: _67  and  _69
REMARK   31  A    between atoms: _69  and  _70
REMARK   32  A    between atoms: _69  and  _72
REMARK   33  A    between atoms: _75  and  _77
REMARK   34  A    between atoms: _77  and  _78
REMARK   35  A    between atoms: _77  and  _80
REMARK   36  A    between atoms: _80  and  _81
REMARK   37  A    between atoms: _84  and  _86
REMARK   38  A    between atoms: _86  and  _87
REMARK   39  A    between atoms: _86  and  _89
REMARK   40  A    between atoms: _89  and  _90
REMARK   41  A    between atoms: _93  and  _95
REMARK   42  A    between atoms: _95  and  _96
REMARK   43  A    between atoms: _98  and  _100
REMARK   44  A    between atoms: _100  and  _101
REMARK   45  A    between atoms: _100  and  _103
REMARK   46  A    between atoms: _103  and  _104
REMARK   47  A    between atoms: _106  and  _108
REMARK   48  A    between atoms: _108  and  _109
REMARK   49  A    between atoms: _108  and  _111
REMARK   50  A    between atoms: _111  and  _112
REMARK   51  A    between atoms: _114  and  _116
REMARK   52  A    between atoms: _116  and  _117
REMARK   53  A    between atoms: _116  and  _119
REMARK   54  A    between atoms: _119  and  _120
REMARK   55  A    between atoms: _125  and  _127
REMARK   56  A    between atoms: _127  and  _128
REMARK   57  A    between atoms: _127  and  _130
REMARK   58  A    between atoms: _130  and  _131
REMARK   59  A    between atoms: _136  and  _137
REMARK   60  A    between atoms: _139  and  _141
REMARK   61  A    between atoms: _141  and  _142
REMARK   62  A    between atoms: _141  and  _144
REMARK   63  A    between atoms: _148  and  _149
REMARK   64  A    between atoms: _154  and  _156
REMARK   65  A    between atoms: _156  and  _157
REMARK   66  A    between atoms: _156  and  _159
REMARK   67  A    between atoms: _159  and  _160
REMARK   68  A    between atoms: _165  and  _166
REMARK   69  A    between atoms: _168  and  _170
REMARK   70  A    between atoms: _170  and  _171
REMARK   71  A    between atoms: _170  and  _173
REMARK   72  A    between atoms: _173  and  _174
REMARK   73  A    between atoms: _177  and  _179
REMARK   74  A    between atoms: _179  and  _180
REMARK   75  A    between atoms: _179  and  _182
REMARK   76  A    between atoms: _182  and  _183
REMARK   77  A    between atoms: _183  and  _184
REMARK   78  A    between atoms: _189  and  _191
REMARK   79  A    between atoms: _191  and  _192
REMARK   80  A    between atoms: _194  and  _196
REMARK   81  A    between atoms: _196  and  _197
REMARK   82  A    between atoms: _196  and  _199
REMARK   83  A    between atoms: _199  and  _200
REMARK   84  A    between atoms: _200  and  _201
REMARK   85  A    between atoms: _201  and  _202
REMARK   86  A    between atoms: _202  and  _203
REMARK   87  A    between atoms: _207  and  _209
REMARK   88  A    between atoms: _209  and  _210
REMARK   89  A    between atoms: _209  and  _212
REMARK   90  A    between atoms: _212  and  _213
REMARK   91  A    between atoms: _223  and  _225
REMARK   92  A    between atoms: _225  and  _226
REMARK   93  A    between atoms: _225  and  _228
REMARK   94  A    between atoms: _228  and  _229
REMARK   95  A    between atoms: _232  and  _234
REMARK   96  A    between atoms: _234  and  _235
REMARK   97  A    between atoms: _234  and  _237
REMARK   98  A    between atoms: _237  and  _238
REMARK   99  A    between atoms: _238  and  _239
REMARK  100  A    between atoms: _239  and  _240
REMARK  101  A    between atoms: _240  and  _241
REMARK  102  A    between atoms: _245  and  _247
REMARK  103  A    between atoms: _247  and  _248
REMARK  104  A    between atoms: _247  and  _250
REMARK  105  A    between atoms: _250  and  _251
REMARK  106  A    between atoms: _257  and  _259
REMARK  107  A    between atoms: _259  and  _260
REMARK  108  A    between atoms: _259  and  _262
REMARK  109  A    between atoms: _262  and  _263
REMARK  110  A    between atoms: _269  and  _271
REMARK  111  A    between atoms: _271  and  _272
REMARK  112  A    between atoms: _271  and  _274
REMARK  113  A    between atoms: _274  and  _275
REMARK  114  A    between atoms: _278  and  _280
REMARK  115  A    between atoms: _280  and  _281
REMARK  116  A    between atoms: _280  and  _283
REMARK  117  A    between atoms: _283  and  _284
REMARK  118  A    between atoms: _286  and  _288
REMARK  119  A    between atoms: _288  and  _289
REMARK  120  A    between atoms: _288  and  _291
REMARK  121  A    between atoms: _291  and  _292
REMARK  122  A    between atoms: _302  and  _304
REMARK  123  A    between atoms: _304  and  _305
REMARK  124  A    between atoms: _307  and  _309
REMARK  125  A    between atoms: _309  and  _310
REMARK  126  A    between atoms: _309  and  _312
REMARK  127  A    between atoms: _312  and  _313
REMARK  128  A    between atoms: _316  and  _318
REMARK  129  A    between atoms: _318  and  _319
REMARK  130  A    between atoms: _318  and  _321
REMARK  131  A    between atoms: _321  and  _322
REMARK  132  A    between atoms: _325  and  _327
REMARK  133  A    between atoms: _327  and  _328
REMARK  134  A    between atoms: _330  and  _332
REMARK  135  A    between atoms: _332  and  _333
REMARK  136  A    between atoms: _332  and  _335
REMARK  137  A    between atoms: _335  and  _336
REMARK  138  A    between atoms: _339  and  _341
REMARK  139  A    between atoms: _341  and  _342
REMARK  140  A    between atoms: _345  and  _347
REMARK  141  A    between atoms: _347  and  _348
REMARK  142  A    between atoms: _347  and  _350
REMARK  143  A    between atoms: _350  and  _351
REMARK  144  A    between atoms: _354  and  _356
REMARK  145  A    between atoms: _356  and  _357
REMARK  146  A    between atoms: _360  and  _362
REMARK  147  A    between atoms: _362  and  _363
REMARK  148  A    between atoms: _362  and  _365
REMARK  149  A    between atoms: _365  and  _366
REMARK  150  A    between atoms: _366  and  _367
REMARK  151  A    between atoms: _367  and  _368
REMARK  152  A    between atoms: _377  and  _379
REMARK  153  A    between atoms: _379  and  _380
REMARK  154  A    between atoms: _379  and  _382
REMARK  155  A    between atoms: _382  and  _383
REMARK  156  A    between atoms: _386  and  _388
REMARK  157  A    between atoms: _388  and  _389
REMARK  158  A    between atoms: _388  and  _391
REMARK  159  A    between atoms: _391  and  _392
REMARK  160  A    between atoms: _397  and  _398
REMARK  161  A    between atoms: _400  and  _402
REMARK  162  A    between atoms: _402  and  _403
REMARK  163  A    between atoms: _402  and  _405
REMARK  164  A    between atoms: _405  and  _406
REMARK  165  A    between atoms: _411  and  _412
REMARK  166  A    between atoms: _414  and  _416
REMARK  167  A    between atoms: _416  and  _417
REMARK  168  A    between atoms: _416  and  _419
REMARK  169  A    between atoms: _419  and  _420
REMARK  170  A    between atoms: _420  and  _421
REMARK  171  A    between atoms: _421  and  _422
REMARK  172  A    between atoms: _422  and  _423
REMARK  173  A    between atoms: _427  and  _429
REMARK  174  A    between atoms: _429  and  _430
REMARK  175  A    between atoms: _429  and  _432
REMARK  176  A    between atoms: _432  and  _433
REMARK  177  A    between atoms: _436  and  _438
REMARK  178  A    between atoms: _438  and  _439
REMARK  179  A    between atoms: _438  and  _441
REMARK  180  A    between atoms: _444  and  _446
REMARK  181  A    between atoms: _446  and  _447
REMARK  182  A    between atoms: _446  and  _449
REMARK  183  A    between atoms: _449  and  _450
REMARK  184  A    between atoms: _453  and  _455
REMARK  185  A    between atoms: _455  and  _456
REMARK  186  A    between atoms: _455  and  _458
REMARK  187  A    between atoms: _458  and  _459
REMARK  188  A    between atoms: _461  and  _463
REMARK  189  A    between atoms: _463  and  _464
REMARK  190  A    between atoms: _466  and  _468
REMARK  191  A    between atoms: _468  and  _469
REMARK  192  A    between atoms: _468  and  _471
REMARK  193  A    between atoms: _471  and  _472
REMARK  194  A    between atoms: _475  and  _477
REMARK  195  A    between atoms: _477  and  _478
REMARK  196  A    between atoms: _477  and  _480
REMARK  197  A    between atoms: _480  and  _481
REMARK  198  A    between atoms: _484  and  _486
REMARK  199  A    between atoms: _486  and  _487
REMARK  200  A    between atoms: _486  and  _489
REMARK  201  A    between atoms: _489  and  _490
REMARK  202  A    between atoms: _495  and  _497
REMARK  203  A    between atoms: _497  and  _498
REMARK  204  A    between atoms: _497  and  _500
REMARK  205  A    between atoms: _500  and  _501
REMARK  206  A    between atoms: _501  and  _502
REMARK  207  A    between atoms: _502  and  _503
REMARK  208  A    between atoms: _512  and  _514
REMARK  209  A    between atoms: _514  and  _515
REMARK  210  A    between atoms: _514  and  _517
REMARK  211  A    between atoms: _517  and  _518
REMARK  212  A    between atoms: _518  and  _519
REMARK  213  A    between atoms: _519  and  _520
REMARK  214  A    between atoms: _529  and  _531
REMARK  215  A    between atoms: _531  and  _532
REMARK  216  A    between atoms: _531  and  _534
REMARK  217  A    between atoms: _534  and  _535
REMARK  218  A    between atoms: _537  and  _539
REMARK  219  A    between atoms: _539  and  _540
REMARK  220  A    between atoms: _539  and  _542
REMARK  221  A    between atoms: _542  and  _543
REMARK  222  A    between atoms: _543  and  _544
REMARK  223  A    between atoms: _549  and  _551
REMARK  224  A    between atoms: _551  and  _552
REMARK  225  A    between atoms: _551  and  _554
REMARK  226  A    between atoms: _554  and  _555
REMARK  227  A    between atoms: _557  and  _559
REMARK  228  A    between atoms: _559  and  _560
REMARK  229  A    between atoms: _559  and  _562
REMARK  230  A    between atoms: _562  and  _563
REMARK  231  A    between atoms: _565  and  _567
REMARK  232  A    between atoms: _567  and  _568
REMARK  233  A    between atoms: _567  and  _570
REMARK  234  A    between atoms: _570  and  _571
REMARK  235  A    between atoms: _574  and  _576
REMARK  236  A    between atoms: _576  and  _577
REMARK  237  A    between atoms: _576  and  _579
REMARK  238  A    between atoms: _579  and  _580
REMARK  239  A    between atoms: _583  and  _585
REMARK  240  A    between atoms: _585  and  _586
REMARK  241  A    between atoms: _585  and  _588
REMARK  242  A    between atoms: _591  and  _593
REMARK  243  A    between atoms: _593  and  _594
REMARK  244  A    between atoms: _596  and  _598
REMARK  245  A    between atoms: _598  and  _599
REMARK  246  A    between atoms: _602  and  _604
REMARK  247  A    between atoms: _604  and  _605
REMARK  248  A    between atoms: _604  and  _607
REMARK                            x       y       z     vdW  Elec       q    Type
REMARK                         _______ _______ _______ _____ _____    ______ ____
ROOT
ATOM      1  CA  SER A   1      33.380   8.815  13.372  0.00  0.00    +0.163 C 
ENDROOT
BRANCH   1   2
ATOM      2  N   SER A   1      33.660   9.714  12.245  0.00  0.00    -0.237 NA
ATOM      3  H   SER A   1      32.876  10.242  11.811  0.00  0.00    +0.142 HD
ENDBRANCH   1   2
BRANCH   1   4
ATOM      4  CB  SER A   1      33.411   7.343  12.955  0.00  0.00    +0.227 C 
ATOM      5  OG  SER A   1      33.644   6.446  13.768  0.00  0.00    -0.287 OA
ENDBRANCH   1   4
BRANCH   1   6
ATOM      6  C   SER A   1      31.994   9.111  13.933  0.00  0.00    +0.162 C 
BRANCH   6   7
ATOM      7  O   SER A   1      31.003   8.712  12.994  0.00  0.00    -0.380 OA
ATOM      8  H   SER A   1      30.105   8.906  13.362  0.00  0.00    +0.211 HD
ENDBRANCH   6   7
ENDBRANCH   1   6
TORSDOF 4
REMARK  Name = ../refined-set-2016/2qmg/2qmg_pocket.pdb
REMARK  248 active torsions:
REMARK  status: ('A' for Active; 'I' for Inactive)
REMARK    1  A    between atoms: _1  and  _3
REMARK    2  A    between atoms: _3  and  _4
REMARK    3  A    between atoms: _3  and  _6
REMARK    4  A    between atoms: _6  and  _7
REMARK    5  A    between atoms: _7  and  _8
REMARK    6  A    between atoms: _8  and  _9
REMARK    7  A    between atoms: _9  and  _10
REMARK    8  A    between atoms: _14  and  _16
REMARK    9  A    between atoms: _16  and  _17
REMARK   10  A    between atoms: _16  and  _19
REMARK   11  A    between atoms: _19  and  _20
REMARK   12  A    between atoms: _22  and  _24
REMARK   13  A    between atoms: _24  and  _25
REMARK   14  A    between atoms: _27  and  _29
REMARK   15  A    between atoms: _29  and  _30
REMARK   16  A    between atoms: _29  and  _32
REMARK   17  A    between atoms: _32  and  _33
REMARK   18  A    between atoms: _33  and  _34
REMARK   19  A    between atoms: _39  and  _41
REMARK   20  A    between atoms: _41  and  _42
REMARK   21  A    between atoms: _44  and  _46
REMARK   22  A    between atoms: _46  and  _47
REMARK   23  A    between atoms: _46  and  _49
REMARK   24  A    between atoms: _49  and  _50
REMARK   25  A    between atoms: _55  and  _56
REMARK   26  A    between atoms: _58  and  _60
REMARK   27  A    between atoms: _60  and  _61
REMARK   28  A    between atoms: _60  and  _63
REMARK   29  A    between atoms: _63  and  _64
REMARK   30  A    between atoms: _67  and  _69
REMARK   31  A    between atoms: _69  and  _70
REMARK   32  A    between atoms: _69  and  _72
REMARK   33  A    between atoms: _75  and  _77
REMARK   34  A    between atoms: _77  and  _78
REMARK   35  A    between atoms: _77  and  _80
REMARK   36  A    between atoms: _80  and  _81
REMARK   37  A    between atoms: _84  and  _86
REMARK   38  A    between atoms: _86  and  _87
REMARK   39  A    between atoms: _86  and  _89
REMARK   40  A    between atoms: _89  and  _90
REMARK   41  A    between atoms: _93  and  _95
REMARK   42  A    between atoms: _95  and  _96
REMARK   43  A    between atoms: _98  and  _100
REMARK   44  A    between atoms: _100  and  _101
REMARK   45  A    between atoms: _100  and  _103
REMARK   46  A    between atoms: _103  and  _104
REMARK   47  A    between atoms: _106  and  _108
REMARK   48  A    between atoms: _108  and  _109
REMARK   49  A    between atoms: _108  and  _111
REMARK   50  A    between atoms: _111  and  _112
REMARK   51  A    between atoms: _114  and  _116
REMARK   52  A    between atoms: _116  and  _117
REMARK   53  A    between atoms: _116  and  _119
REMARK   54  A    between atoms: _119  and  _120
REMARK   55  A    between atoms: _125  and  _127
REMARK   56  A    between atoms: _127  and  _128
REMARK   57  A    between atoms: _127  and  _130
REMARK   58  A    between atoms: _130  and  _131
REMARK   59  A    between atoms: _136  and  _137
REMARK   60  A    between atoms: _139  and  _141
REMARK   61  A    between atoms: _141  and  _142
REMARK   62  A    between atoms: _141  and  _144
REMARK   63  A    between atoms: _148  and  _149
REMARK   64  A    between atoms: _154  and  _156
REMARK   65  A    between atoms: _156  and  _157
REMARK   66  A    between atoms: _156  and  _159
REMARK   67  A    between atoms: _159  and  _160
REMARK   68  A    between atoms: _165  and  _166
REMARK   69  A    between atoms: _168  and  _170
REMARK   70  A    between atoms: _170  and  _171
REMARK   71  A    between atoms: _170  and  _173
REMARK   72  A    between atoms: _173  and  _174
REMARK   73  A    between atoms: _177  and  _179
REMARK   74  A    between atoms: _179  and  _180
REMARK   75  A    between atoms: _179  and  _182
REMARK   76  A    between atoms: _182  and  _183
REMARK   77  A    between atoms: _183  and  _184
REMARK   78  A    between atoms: _189  and  _191
REMARK   79  A    between atoms: _191  and  _192
REMARK   80  A    between atoms: _194  and  _196
REMARK   81  A    between atoms: _196  and  _197
REMARK   82  A    between atoms: _196  and  _199
REMARK   83  A    between atoms: _199  and  _200
REMARK   84  A    between atoms: _200  and  _201
REMARK   85  A    between atoms: _201  and  _202
REMARK   86  A    between atoms: _202  and  _203
REMARK   87  A    between atoms: _207  and  _209
REMARK   88  A    between atoms: _209  and  _210
REMARK   89  A    between atoms: _209  and  _212
REMARK   90  A    between atoms: _212  and  _213
REMARK   91  A    between atoms: _223  and  _225
REMARK   92  A    between atoms: _225  and  _226
REMARK   93  A    between atoms: _225  and  _228
REMARK   94  A    between atoms: _228  and  _229
REMARK   95  A    between atoms: _232  and  _234
REMARK   96  A    between atoms: _234  and  _235
REMARK   97  A    between atoms: _234  and  _237
REMARK   98  A    between atoms: _237  and  _238
REMARK   99  A    between atoms: _238  and  _239
REMARK  100  A    between atoms: _239  and  _240
REMARK  101  A    between atoms: _240  and  _241
REMARK  102  A    between atoms: _245  and  _247
REMARK  103  A    between atoms: _247  and  _248
REMARK  104  A    between atoms: _247  and  _250
REMARK  105  A    between atoms: _250  and  _251
REMARK  106  A    between atoms: _257  and  _259
REMARK  107  A    between atoms: _259  and  _260
REMARK  108  A    between atoms: _259  and  _262
REMARK  109  A    between atoms: _262  and  _263
REMARK  110  A    between atoms: _269  and  _271
REMARK  111  A    between atoms: _271  and  _272
REMARK  112  A    between atoms: _271  and  _274
REMARK  113  A    between atoms: _274  and  _275
REMARK  114  A    between atoms: _278  and  _280
REMARK  115  A    between atoms: _280  and  _281
REMARK  116  A    between atoms: _280  and  _283
REMARK  117  A    between atoms: _283  and  _284
REMARK  118  A    between atoms: _286  and  _288
REMARK  119  A    between atoms: _288  and  _289
REMARK  120  A    between atoms: _288  and  _291
REMARK  121  A    between atoms: _291  and  _292
REMARK  122  A    between atoms: _302  and  _304
REMARK  123  A    between atoms: _304  and  _305
REMARK  124  A    between atoms: _307  and  _309
REMARK  125  A    between atoms: _309  and  _310
REMARK  126  A    between atoms: _309  and  _312
REMARK  127  A    between atoms: _312  and  _313
REMARK  128  A    between atoms: _316  and  _318
REMARK  129  A    between atoms: _318  and  _319
REMARK  130  A    between atoms: _318  and  _321
REMARK  131  A    between atoms: _321  and  _322
REMARK  132  A    between atoms: _325  and  _327
REMARK  133  A    between atoms: _327  and  _328
REMARK  134  A    between atoms: _330  and  _332
REMARK  135  A    between atoms: _332  and  _333
REMARK  136  A    between atoms: _332  and  _335
REMARK  137  A    between atoms: _335  and  _336
REMARK  138  A    between atoms: _339  and  _341
REMARK  139  A    between atoms: _341  and  _342
REMARK  140  A    between atoms: _345  and  _347
REMARK  141  A    between atoms: _347  and  _348
REMARK  142  A    between atoms: _347  and  _350
REMARK  143  A    between atoms: _350  and  _351
REMARK  144  A    between atoms: _354  and  _356
REMARK  145  A    between atoms: _356  and  _357
REMARK  146  A    between atoms: _360  and  _362
REMARK  147  A    between atoms: _362  and  _363
REMARK  148  A    between atoms: _362  and  _365
REMARK  149  A    between atoms: _365  and  _366
REMARK  150  A    between atoms: _366  and  _367
REMARK  151  A    between atoms: _367  and  _368
REMARK  152  A    between atoms: _377  and  _379
REMARK  153  A    between atoms: _379  and  _380
REMARK  154  A    between atoms: _379  and  _382
REMARK  155  A    between atoms: _382  and  _383
REMARK  156  A    between atoms: _386  and  _388
REMARK  157  A    between atoms: _388  and  _389
REMARK  158  A    between atoms: _388  and  _391
REMARK  159  A    between atoms: _391  and  _392
REMARK  160  A    between atoms: _397  and  _398
REMARK  161  A    between atoms: _400  and  _402
REMARK  162  A    between atoms: _402  and  _403
REMARK  163  A    between atoms: _402  and  _405
REMARK  164  A    between atoms: _405  and  _406
REMARK  165  A    between atoms: _411  and  _412
REMARK  166  A    between atoms: _414  and  _416
REMARK  167  A    between atoms: _416  and  _417
REMARK  168  A    between atoms: _416  and  _419
REMARK  169  A    between atoms: _419  and  _420
REMARK  170  A    between atoms: _420  and  _421
REMARK  171  A    between atoms: _421  and  _422
REMARK  172  A    between atoms: _422  and  _423
REMARK  173  A    between atoms: _427  and  _429
REMARK  174  A    between atoms: _429  and  _430
REMARK  175  A    between atoms: _429  and  _432
REMARK  176  A    between atoms: _432  and  _433
REMARK  177  A    between atoms: _436  and  _438
REMARK  178  A    between atoms: _438  and  _439
REMARK  179  A    between atoms: _438  and  _441
REMARK  180  A    between atoms: _444  and  _446
REMARK  181  A    between atoms: _446  and  _447
REMARK  182  A    between atoms: _446  and  _449
REMARK  183  A    between atoms: _449  and  _450
REMARK  184  A    between atoms: _453  and  _455
REMARK  185  A    between atoms: _455  and  _456
REMARK  186  A    between atoms: _455  and  _458
REMARK  187  A    between atoms: _458  and  _459
REMARK  188  A    between atoms: _461  and  _463
REMARK  189  A    between atoms: _463  and  _464
REMARK  190  A    between atoms: _466  and  _468
REMARK  191  A    between atoms: _468  and  _469
REMARK  192  A    between atoms: _468  and  _471
REMARK  193  A    between atoms: _471  and  _472
REMARK  194  A    between atoms: _475  and  _477
REMARK  195  A    between atoms: _477  and  _478
REMARK  196  A    between atoms: _477  and  _480
REMARK  197  A    between atoms: _480  and  _481
REMARK  198  A    between atoms: _484  and  _486
REMARK  199  A    between atoms: _486  and  _487
REMARK  200  A    between atoms: _486  and  _489
REMARK  201  A    between atoms: _489  and  _490
REMARK  202  A    between atoms: _495  and  _497
REMARK  203  A    between atoms: _497  and  _498
REMARK  204  A    between atoms: _497  and  _500
REMARK  205  A    between atoms: _500  and  _501
REMARK  206  A    between atoms: _501  and  _502
REMARK  207  A    between atoms: _502  and  _503
REMARK  208  A    between atoms: _512  and  _514
REMARK  209  A    between atoms: _514  and  _515
REMARK  210  A    between atoms: _514  and  _517
REMARK  211  A    between atoms: _517  and  _518
REMARK  212  A    between atoms: _518  and  _519
REMARK  213  A    between atoms: _519  and  _520
REMARK  214  A    between atoms: _529  and  _531
REMARK  215  A    between atoms: _531  and  _532
REMARK  216  A    between atoms: _531  and  _534
REMARK  217  A    between atoms: _534  and  _535
REMARK  218  A    between atoms: _537  and  _539
REMARK  219  A    between atoms: _539  and  _540
REMARK  220  A    between atoms: _539  and  _542
REMARK  221  A    between atoms: _542  and  _543
REMARK  222  A    between atoms: _543  and  _544
REMARK  223  A    between atoms: _549  and  _551
REMARK  224  A    between atoms: _551  and  _552
REMARK  225  A    between atoms: _551  and  _554
REMARK  226  A    between atoms: _554  and  _555
REMARK  227  A    between atoms: _557  and  _559
REMARK  228  A    between atoms: _559  and  _560
REMARK  229  A    between atoms: _559  and  _562
REMARK  230  A    between atoms: _562  and  _563
REMARK  231  A    between atoms: _565  and  _567
REMARK  232  A    between atoms: _567  and  _568
REMARK  233  A    between atoms: _567  and  _570
REMARK  234  A    between atoms: _570  and  _571
REMARK  235  A    between atoms: _574  and  _576
REMARK  236  A    between atoms: _576  and  _577
REMARK  237  A    between atoms: _576  and  _579
REMARK  238  A    between atoms: _579  and  _580
REMARK  239  A    between atoms: _583  and  _585
REMARK  240  A    between atoms: _585  and  _586
REMARK  241  A    between atoms: _585  and  _588
REMARK  242  A    between atoms: _591  and  _593
REMARK  243  A    between atoms: _593  and  _594
REMARK  244  A    between atoms: _596  and  _598
REMARK  245  A    between atoms: _598  and  _599
REMARK  246  A    between atoms: _602  and  _604
REMARK  247  A    between atoms: _604  and  _605
REMARK  248  A    between atoms: _604  and  _607
REMARK                            x       y       z     vdW  Elec       q    Type
REMARK                         _______ _______ _______ _____ _____    ______ ____
ROOT
ATOM      1  CG  TRP A   1      29.233   6.088  14.650  0.00  0.00    -0.002 A 
ATOM      2  CD1 TRP A   1      30.221   6.480  15.512  0.00  0.00    +0.068 A 
ATOM      3  NE1 TRP A   1      29.844   7.617  16.181  0.00  0.00    -0.352 N 
ATOM      4  HE1 TRP A   1      30.412   8.115  16.896  0.00  0.00    +0.166 HD
ATOM      5  CE2 TRP A   1      28.596   7.990  15.753  0.00  0.00    +0.056 A 
ATOM      6  CZ2 TRP A   1      27.801   9.072  16.136  0.00  0.00    +0.017 A 
ATOM      7  CH2 TRP A   1      26.579   9.204  15.535  0.00  0.00    +0.001 A 
ATOM      8  CZ3 TRP A   1      26.138   8.289  14.568  0.00  0.00    +0.000 A 
ATOM      9  CE3 TRP A   1      26.927   7.212  14.186  0.00  0.00    +0.001 A 
ATOM     10  CD2 TRP A   1      28.181   7.052  14.786  0.00  0.00    +0.013 A 
ENDROOT
BRANCH   1  11
ATOM     11  CB  TRP A   1      29.212   4.823  13.826  0.00  0.00    +0.053 C 
BRANCH  11  12
ATOM     12  CA  TRP A   1      29.584   4.917  12.331  0.00  0.00    +0.137 C 
BRANCH  12  13
ATOM     13  N   TRP A   1      30.837   5.631  12.072  0.00  0.00    -0.239 NA
ATOM     14  H   TRP A   1      30.959   6.614  12.389  0.00  0.00    +0.142 HD
ENDBRANCH  12  13
BRANCH  12  15
ATOM     15  C   TRP A   1      28.461   5.558  11.528  0.00  0.00    +0.224 C 
ATOM     16  O   TRP A   1      28.493   6.755  11.226  0.00  0.00    -0.287 OA
ENDBRANCH  12  15
ENDBRANCH  11  12
ENDBRANCH   1  11
TORSDOF 4
REMARK  Name = ../refined-set-2016/2qmg/2qmg_pocket.pdb
REMARK  248 active torsions:
REMARK  status: ('A' for Active; 'I' for Inactive)
REMARK    1  A    between atoms: _1  and  _3
REMARK    2  A    between atoms: _3  and  _4
REMARK    3  A    between atoms: _3  and  _6
REMARK    4  A    between atoms: _6  and  _7
REMARK    5  A    between atoms: _7  and  _8
REMARK    6  A    between atoms: _8  and  _9
REMARK    7  A    between atoms: _9  and  _10
REMARK    8  A    between atoms: _14  and  _16
REMARK    9  A    between atoms: _16  and  _17
REMARK   10  A    between atoms: _16  and  _19
REMARK   11  A    between atoms: _19  and  _20
REMARK   12  A    between atoms: _22  and  _24
REMARK   13  A    between atoms: _24  and  _25
REMARK   14  A    between atoms: _27  and  _29
REMARK   15  A    between atoms: _29  and  _30
REMARK   16  A    between atoms: _29  and  _32
REMARK   17  A    between atoms: _32  and  _33
REMARK   18  A    between atoms: _33  and  _34
REMARK   19  A    between atoms: _39  and  _41
REMARK   20  A    between atoms: _41  and  _42
REMARK   21  A    between atoms: _44  and  _46
REMARK   22  A    between atoms: _46  and  _47
REMARK   23  A    between atoms: _46  and  _49
REMARK   24  A    between atoms: _49  and  _50
REMARK   25  A    between atoms: _55  and  _56
REMARK   26  A    between atoms: _58  and  _60
REMARK   27  A    between atoms: _60  and  _61
REMARK   28  A    between atoms: _60  and  _63
REMARK   29  A    between atoms: _63  and  _64
REMARK   30  A    between atoms: _67  and  _69
REMARK   31  A    between atoms: _69  and  _70
REMARK   32  A    between atoms: _69  and  _72
REMARK   33  A    between atoms: _75  and  _77
REMARK   34  A    between atoms: _77  and  _78
REMARK   35  A    between atoms: _77  and  _80
REMARK   36  A    between atoms: _80  and  _81
REMARK   37  A    between atoms: _84  and  _86
REMARK   38  A    between atoms: _86  and  _87
REMARK   39  A    between atoms: _86  and  _89
REMARK   40  A    between atoms: _89  and  _90
REMARK   41  A    between atoms: _93  and  _95
REMARK   42  A    between atoms: _95  and  _96
REMARK   43  A    between atoms: _98  and  _100
REMARK   44  A    between atoms: _100  and  _101
REMARK   45  A    between atoms: _100  and  _103
REMARK   46  A    between atoms: _103  and  _104
REMARK   47  A    between atoms: _106  and  _108
REMARK   48  A    between atoms: _108  and  _109
REMARK   49  A    between atoms: _108  and  _111
REMARK   50  A    between atoms: _111  and  _112
REMARK   51  A    between atoms: _114  and  _116
REMARK   52  A    between atoms: _116  and  _117
REMARK   53  A    between atoms: _116  and  _119
REMARK   54  A    between atoms: _119  and  _120
REMARK   55  A    between atoms: _125  and  _127
REMARK   56  A    between atoms: _127  and  _128
REMARK   57  A    between atoms: _127  and  _130
REMARK   58  A    between atoms: _130  and  _131
REMARK   59  A    between atoms: _136  and  _137
REMARK   60  A    between atoms: _139  and  _141
REMARK   61  A    between atoms: _141  and  _142
REMARK   62  A    between atoms: _141  and  _144
REMARK   63  A    between atoms: _148  and  _149
REMARK   64  A    between atoms: _154  and  _156
REMARK   65  A    between atoms: _156  and  _157
REMARK   66  A    between atoms: _156  and  _159
REMARK   67  A    between atoms: _159  and  _160
REMARK   68  A    between atoms: _165  and  _166
REMARK   69  A    between atoms: _168  and  _170
REMARK   70  A    between atoms: _170  and  _171
REMARK   71  A    between atoms: _170  and  _173
REMARK   72  A    between atoms: _173  and  _174
REMARK   73  A    between atoms: _177  and  _179
REMARK   74  A    between atoms: _179  and  _180
REMARK   75  A    between atoms: _179  and  _182
REMARK   76  A    between atoms: _182  and  _183
REMARK   77  A    between atoms: _183  and  _184
REMARK   78  A    between atoms: _189  and  _191
REMARK   79  A    between atoms: _191  and  _192
REMARK   80  A    between atoms: _194  and  _196
REMARK   81  A    between atoms: _196  and  _197
REMARK   82  A    between atoms: _196  and  _199
REMARK   83  A    between atoms: _199  and  _200
REMARK   84  A    between atoms: _200  and  _201
REMARK   85  A    between atoms: _201  and  _202
REMARK   86  A    between atoms: _202  and  _203
REMARK   87  A    between atoms: _207  and  _209
REMARK   88  A    between atoms: _209  and  _210
REMARK   89  A    between atoms: _209  and  _212
REMARK   90  A    between atoms: _212  and  _213
REMARK   91  A    between atoms: _223  and  _225
REMARK   92  A    between atoms: _225  and  _226
REMARK   93  A    between atoms: _225  and  _228
REMARK   94  A    between atoms: _228  and  _229
REMARK   95  A    between atoms: _232  and  _234
REMARK   96  A    between atoms: _234  and  _235
REMARK   97  A    between atoms: _234  and  _237
REMARK   98  A    between atoms: _237  and  _238
REMARK   99  A    between atoms: _238  and  _239
REMARK  100  A    between atoms: _239  and  _240
REMARK  101  A    between atoms: _240  and  _241
REMARK  102  A    between atoms: _245  and  _247
REMARK  103  A    between atoms: _247  and  _248
REMARK  104  A    between atoms: _247  and  _250
REMARK  105  A    between atoms: _250  and  _251
REMARK  106  A    between atoms: _257  and  _259
REMARK  107  A    between atoms: _259  and  _260
REMARK  108  A    between atoms: _259  and  _262
REMARK  109  A    between atoms: _262  and  _263
REMARK  110  A    between atoms: _269  and  _271
REMARK  111  A    between atoms: _271  and  _272
REMARK  112  A    between atoms: _271  and  _274
REMARK  113  A    between atoms: _274  and  _275
REMARK  114  A    between atoms: _278  and  _280
REMARK  115  A    between atoms: _280  and  _281
REMARK  116  A    between atoms: _280  and  _283
REMARK  117  A    between atoms: _283  and  _284
REMARK  118  A    between atoms: _286  and  _288
REMARK  119  A    between atoms: _288  and  _289
REMARK  120  A    between atoms: _288  and  _291
REMARK  121  A    between atoms: _291  and  _292
REMARK  122  A    between atoms: _302  and  _304
REMARK  123  A    between atoms: _304  and  _305
REMARK  124  A    between atoms: _307  and  _309
REMARK  125  A    between atoms: _309  and  _310
REMARK  126  A    between atoms: _309  and  _312
REMARK  127  A    between atoms: _312  and  _313
REMARK  128  A    between atoms: _316  and  _318
REMARK  129  A    between atoms: _318  and  _319
REMARK  130  A    between atoms: _318  and  _321
REMARK  131  A    between atoms: _321  and  _322
REMARK  132  A    between atoms: _325  and  _327
REMARK  133  A    between atoms: _327  and  _328
REMARK  134  A    between atoms: _330  and  _332
REMARK  135  A    between atoms: _332  and  _333
REMARK  136  A    between atoms: _332  and  _335
REMARK  137  A    between atoms: _335  and  _336
REMARK  138  A    between atoms: _339  and  _341
REMARK  139  A    between atoms: _341  and  _342
REMARK  140  A    between atoms: _345  and  _347
REMARK  141  A    between atoms: _347  and  _348
REMARK  142  A    between atoms: _347  and  _350
REMARK  143  A    between atoms: _350  and  _351
REMARK  144  A    between atoms: _354  and  _356
REMARK  145  A    between atoms: _356  and  _357
REMARK  146  A    between atoms: _360  and  _362
REMARK  147  A    between atoms: _362  and  _363
REMARK  148  A    between atoms: _362  and  _365
REMARK  149  A    between atoms: _365  and  _366
REMARK  150  A    between atoms: _366  and  _367
REMARK  151  A    between atoms: _367  and  _368
REMARK  152  A    between atoms: _377  and  _379
REMARK  153  A    between atoms: _379  and  _380
REMARK  154  A    between atoms: _379  and  _382
REMARK  155  A    between atoms: _382  and  _383
REMARK  156  A    between atoms: _386  and  _388
REMARK  157  A    between atoms: _388  and  _389
REMARK  158  A    between atoms: _388  and  _391
REMARK  159  A    between atoms: _391  and  _392
REMARK  160  A    between atoms: _397  and  _398
REMARK  161  A    between atoms: _400  and  _402
REMARK  162  A    between atoms: _402  and  _403
REMARK  163  A    between atoms: _402  and  _405
REMARK  164  A    between atoms: _405  and  _406
REMARK  165  A    between atoms: _411  and  _412
REMARK  166  A    between atoms: _414  and  _416
REMARK  167  A    between atoms: _416  and  _417
REMARK  168  A    between atoms: _416  and  _419
REMARK  169  A    between atoms: _419  and  _420
REMARK  170  A    between atoms: _420  and  _421
REMARK  171  A    between atoms: _421  and  _422
REMARK  172  A    between atoms: _422  and  _423
REMARK  173  A    between atoms: _427  and  _429
REMARK  174  A    between atoms: _429  and  _430
REMARK  175  A    between atoms: _429  and  _432
REMARK  176  A    between atoms: _432  and  _433
REMARK  177  A    between atoms: _436  and  _438
REMARK  178  A    between atoms: _438  and  _439
REMARK  179  A    between atoms: _438  and  _441
REMARK  180  A    between atoms: _444  and  _446
REMARK  181  A    between atoms: _446  and  _447
REMARK  182  A    between atoms: _446  and  _449
REMARK  183  A    between atoms: _449  and  _450
REMARK  184  A    between atoms: _453  and  _455
REMARK  185  A    between atoms: _455  and  _456
REMARK  186  A    between atoms: _455  and  _458
REMARK  187  A    between atoms: _458  and  _459
REMARK  188  A    between atoms: _461  and  _463
REMARK  189  A    between atoms: _463  and  _464
REMARK  190  A    between atoms: _466  and  _468
REMARK  191  A    between atoms: _468  and  _469
REMARK  192  A    between atoms: _468  and  _471
REMARK  193  A    between atoms: _471  and  _472
REMARK  194  A    between atoms: _475  and  _477
REMARK  195  A    between atoms: _477  and  _478
REMARK  196  A    between atoms: _477  and  _480
REMARK  197  A    between atoms: _480  and  _481
REMARK  198  A    between atoms: _484  and  _486
REMARK  199  A    between atoms: _486  and  _487
REMARK  200  A    between atoms: _486  and  _489
REMARK  201  A    between atoms: _489  and  _490
REMARK  202  A    between atoms: _495  and  _497
REMARK  203  A    between atoms: _497  and  _498
REMARK  204  A    between atoms: _497  and  _500
REMARK  205  A    between atoms: _500  and  _501
REMARK  206  A    between atoms: _501  and  _502
REMARK  207  A    between atoms: _502  and  _503
REMARK  208  A    between atoms: _512  and  _514
REMARK  209  A    between atoms: _514  and  _515
REMARK  210  A    between atoms: _514  and  _517
REMARK  211  A    between atoms: _517  and  _518
REMARK  212  A    between atoms: _518  and  _519
REMARK  213  A    between atoms: _519  and  _520
REMARK  214  A    between atoms: _529  and  _531
REMARK  215  A    between atoms: _531  and  _532
REMARK  216  A    between atoms: _531  and  _534
REMARK  217  A    between atoms: _534  and  _535
REMARK  218  A    between atoms: _537  and  _539
REMARK  219  A    between atoms: _539  and  _540
REMARK  220  A    between atoms: _539  and  _542
REMARK  221  A    between atoms: _542  and  _543
REMARK  222  A    between atoms: _543  and  _544
REMARK  223  A    between atoms: _549  and  _551
REMARK  224  A    between atoms: _551  and  _552
REMARK  225  A    between atoms: _551  and  _554
REMARK  226  A    between atoms: _554  and  _555
REMARK  227  A    between atoms: _557  and  _559
REMARK  228  A    between atoms: _559  and  _560
REMARK  229  A    between atoms: _559  and  _562
REMARK  230  A    between atoms: _562  and  _563
REMARK  231  A    between atoms: _565  and  _567
REMARK  232  A    between atoms: _567  and  _568
REMARK  233  A    between atoms: _567  and  _570
REMARK  234  A    between atoms: _570  and  _571
REMARK  235  A    between atoms: _574  and  _576
REMARK  236  A    between atoms: _576  and  _577
REMARK  237  A    between atoms: _576  and  _579
REMARK  238  A    between atoms: _579  and  _580
REMARK  239  A    between atoms: _583  and  _585
REMARK  240  A    between atoms: _585  and  _586
REMARK  241  A    between atoms: _585  and  _588
REMARK  242  A    between atoms: _591  and  _593
REMARK  243  A    between atoms: _593  and  _594
REMARK  244  A    between atoms: _596  and  _598
REMARK  245  A    between atoms: _598  and  _599
REMARK  246  A    between atoms: _602  and  _604
REMARK  247  A    between atoms: _604  and  _605
REMARK  248  A    between atoms: _604  and  _607
REMARK                            x       y       z     vdW  Elec       q    Type
REMARK                         _______ _______ _______ _____ _____    ______ ____
ROOT
ATOM      1  C   LEU A   3      21.313   1.674  20.195  0.00  0.00    +0.241 C 
ATOM      2  O   LEU A   3      22.133   1.615  21.122  0.00  0.00    -0.273 OA
ATOM      3  N   GLY A   4      20.054   2.081  20.356  0.00  0.00    -0.295 N 
ATOM      4  H   GLY A   4      19.419   2.131  19.534  0.00  0.00    +0.150 HD
ENDROOT
BRANCH   3   5
ATOM      5  CA  GLY A   4      19.559   2.456  21.675  0.00  0.00    +0.176 C 
BRANCH   5   6
ATOM      6  C   GLY A   4      19.270   1.194  22.467  0.00  0.00    +0.243 C 
ATOM      7  N   LEU A   5      20.043   0.965  23.521  0.00  0.00    -0.297 N 
ATOM      8  H   LEU A   5      20.778   1.657  23.773  0.00  0.00    +0.150 HD
ATOM      9  O   GLY A   4      18.360   0.439  22.136  0.00  0.00    -0.273 OA
BRANCH   7  10
ATOM     10  CA  LEU A   5      19.885  -0.234  24.333  0.00  0.00    +0.149 C 
BRANCH  10  11
ATOM     11  C   LEU A   5      19.030  -0.069  25.584  0.00  0.00    +0.241 C 
ATOM     12  O   LEU A   5      18.866  -1.026  26.341  0.00  0.00    -0.273 OA
ATOM     13  N   ALA A   6      18.498   1.133  25.817  0.00  0.00    -0.298 N 
ATOM     14  H   ALA A   6      18.683   1.918  25.160  0.00  0.00    +0.150 HD
BRANCH  13  15
ATOM     15  CA  ALA A   6      17.655   1.351  26.993  0.00  0.00    +0.137 C 
ATOM     16  CB  ALA A   6      17.582   2.850  27.339  0.00  0.00    +0.030 C 
BRANCH  15  17
ATOM     17  C   ALA A   6      16.250   0.773  26.761  0.00  0.00    +0.227 C 
ATOM     18  O   ALA A   6      15.995   0.125  25.739  0.00  0.00    -0.286 OA
ENDBRANCH  15  17
ENDBRANCH  13  15
ENDBRANCH  10  11
BRANCH  10  19
ATOM     19  CB  LEU A   5      21.266  -0.766  24.728  0.00  0.00    +0.029 C 
BRANCH  19  20
ATOM     20  CG  LEU A   5      22.103  -1.241  23.545  0.00  0.00    +0.002 C 
ATOM     21  CD2 LEU A   5      23.547  -1.444  23.969  0.00  0.00    +0.000 C 
ATOM     22  CD1 LEU A   5      21.509  -2.546  23.011  0.00  0.00    +0.000 C 
ENDBRANCH  19  20
ENDBRANCH  10  19
ENDBRANCH   7  10
ENDBRANCH   5   6
ENDBRANCH   3   5
BRANCH   1  23
ATOM     23  CA  LEU A   3      21.719   1.291  18.772  0.00  0.00    +0.149 C 
BRANCH  23  25
ATOM     24  C   ILE A   2      21.948   3.061  17.106  0.00  0.00    +0.241 C 
ATOM     25  N   LEU A   3      22.433   2.400  18.154  0.00  0.00    -0.297 N 
ATOM     26  H   LEU A   3      23.353   2.685  18.545  0.00  0.00    +0.150 HD
ATOM     27  O   ILE A   2      20.881   2.779  16.563  0.00  0.00    -0.273 OA
BRANCH  24  28
ATOM     28  CA  ILE A   2      22.803   4.202  16.582  0.00  0.00    +0.148 C 
BRANCH  28  30
ATOM     29  C   GLY A   1      23.863   4.405  14.414  0.00  0.00    +0.240 C 
ATOM     30  N   ILE A   2      22.757   4.256  15.128  0.00  0.00    -0.297 N 
ATOM     31  H   ILE A   2      21.841   4.176  14.642  0.00  0.00    +0.150 HD
ATOM     32  O   GLY A   1      24.985   4.469  14.922  0.00  0.00    -0.274 OA
BRANCH  29  33
ATOM     33  CA  GLY A   1      23.688   4.479  12.909  0.00  0.00    +0.169 C 
BRANCH  33  34
ATOM     34  N   GLY A   1      24.966   4.687  12.254  0.00  0.00    -0.236 NA
ATOM     35  H   GLY A   1      25.852   4.581  12.789  0.00  0.00    +0.142 HD
ENDBRANCH  33  34
ENDBRANCH  29  33
ENDBRANCH  28  30
BRANCH  28  36
ATOM     36  CB  ILE A   2      22.300   5.538  17.164  0.00  0.00    +0.027 C 
ATOM     37  CG2 ILE A   2      20.846   5.761  16.755  0.00  0.00    +0.002 C 
BRANCH  36  38
ATOM     38  CG1 ILE A   2      22.418   5.544  18.688  0.00  0.00    +0.002 C 
ATOM     39  CD1 ILE A   2      22.264   6.944  19.280  0.00  0.00    +0.000 C 
ENDBRANCH  36  38
ENDBRANCH  28  36
ENDBRANCH  24  28
ENDBRANCH  23  25
BRANCH  23  40
ATOM     40  CB  LEU A   3      22.605   0.035  18.816  0.00  0.00    +0.029 C 
BRANCH  40  41
ATOM     41  CG  LEU A   3      21.993  -1.196  19.508  0.00  0.00    +0.002 C 
ATOM     42  CD2 LEU A   3      22.985  -2.360  19.509  0.00  0.00    +0.000 C 
ATOM     43  CD1 LEU A   3      20.707  -1.597  18.779  0.00  0.00    +0.000 C 
ENDBRANCH  40  41
ENDBRANCH  23  40
ENDBRANCH   1  23
TORSDOF 18
REMARK  Name = ../refined-set-2016/2qmg/2qmg_pocket.pdb
REMARK  248 active torsions:
REMARK  status: ('A' for Active; 'I' for Inactive)
REMARK    1  A    between atoms: _1  and  _3
REMARK    2  A    between atoms: _3  and  _4
REMARK    3  A    between atoms: _3  and  _6
REMARK    4  A    between atoms: _6  and  _7
REMARK    5  A    between atoms: _7  and  _8
REMARK    6  A    between atoms: _8  and  _9
REMARK    7  A    between atoms: _9  and  _10
REMARK    8  A    between atoms: _14  and  _16
REMARK    9  A    between atoms: _16  and  _17
REMARK   10  A    between atoms: _16  and  _19
REMARK   11  A    between atoms: _19  and  _20
REMARK   12  A    between atoms: _22  and  _24
REMARK   13  A    between atoms: _24  and  _25
REMARK   14  A    between atoms: _27  and  _29
REMARK   15  A    between atoms: _29  and  _30
REMARK   16  A    between atoms: _29  and  _32
REMARK   17  A    between atoms: _32  and  _33
REMARK   18  A    between atoms: _33  and  _34
REMARK   19  A    between atoms: _39  and  _41
REMARK   20  A    between atoms: _41  and  _42
REMARK   21  A    between atoms: _44  and  _46
REMARK   22  A    between atoms: _46  and  _47
REMARK   23  A    between atoms: _46  and  _49
REMARK   24  A    between atoms: _49  and  _50
REMARK   25  A    between atoms: _55  and  _56
REMARK   26  A    between atoms: _58  and  _60
REMARK   27  A    between atoms: _60  and  _61
REMARK   28  A    between atoms: _60  and  _63
REMARK   29  A    between atoms: _63  and  _64
REMARK   30  A    between atoms: _67  and  _69
REMARK   31  A    between atoms: _69  and  _70
REMARK   32  A    between atoms: _69  and  _72
REMARK   33  A    between atoms: _75  and  _77
REMARK   34  A    between atoms: _77  and  _78
REMARK   35  A    between atoms: _77  and  _80
REMARK   36  A    between atoms: _80  and  _81
REMARK   37  A    between atoms: _84  and  _86
REMARK   38  A    between atoms: _86  and  _87
REMARK   39  A    between atoms: _86  and  _89
REMARK   40  A    between atoms: _89  and  _90
REMARK   41  A    between atoms: _93  and  _95
REMARK   42  A    between atoms: _95  and  _96
REMARK   43  A    between atoms: _98  and  _100
REMARK   44  A    between atoms: _100  and  _101
REMARK   45  A    between atoms: _100  and  _103
REMARK   46  A    between atoms: _103  and  _104
REMARK   47  A    between atoms: _106  and  _108
REMARK   48  A    between atoms: _108  and  _109
REMARK   49  A    between atoms: _108  and  _111
REMARK   50  A    between atoms: _111  and  _112
REMARK   51  A    between atoms: _114  and  _116
REMARK   52  A    between atoms: _116  and  _117
REMARK   53  A    between atoms: _116  and  _119
REMARK   54  A    between atoms: _119  and  _120
REMARK   55  A    between atoms: _125  and  _127
REMARK   56  A    between atoms: _127  and  _128
REMARK   57  A    between atoms: _127  and  _130
REMARK   58  A    between atoms: _130  and  _131
REMARK   59  A    between atoms: _136  and  _137
REMARK   60  A    between atoms: _139  and  _141
REMARK   61  A    between atoms: _141  and  _142
REMARK   62  A    between atoms: _141  and  _144
REMARK   63  A    between atoms: _148  and  _149
REMARK   64  A    between atoms: _154  and  _156
REMARK   65  A    between atoms: _156  and  _157
REMARK   66  A    between atoms: _156  and  _159
REMARK   67  A    between atoms: _159  and  _160
REMARK   68  A    between atoms: _165  and  _166
REMARK   69  A    between atoms: _168  and  _170
REMARK   70  A    between atoms: _170  and  _171
REMARK   71  A    between atoms: _170  and  _173
REMARK   72  A    between atoms: _173  and  _174
REMARK   73  A    between atoms: _177  and  _179
REMARK   74  A    between atoms: _179  and  _180
REMARK   75  A    between atoms: _179  and  _182
REMARK   76  A    between atoms: _182  and  _183
REMARK   77  A    between atoms: _183  and  _184
REMARK   78  A    between atoms: _189  and  _191
REMARK   79  A    between atoms: _191  and  _192
REMARK   80  A    between atoms: _194  and  _196
REMARK   81  A    between atoms: _196  and  _197
REMARK   82  A    between atoms: _196  and  _199
REMARK   83  A    between atoms: _199  and  _200
REMARK   84  A    between atoms: _200  and  _201
REMARK   85  A    between atoms: _201  and  _202
REMARK   86  A    between atoms: _202  and  _203
REMARK   87  A    between atoms: _207  and  _209
REMARK   88  A    between atoms: _209  and  _210
REMARK   89  A    between atoms: _209  and  _212
REMARK   90  A    between atoms: _212  and  _213
REMARK   91  A    between atoms: _223  and  _225
REMARK   92  A    between atoms: _225  and  _226
REMARK   93  A    between atoms: _225  and  _228
REMARK   94  A    between atoms: _228  and  _229
REMARK   95  A    between atoms: _232  and  _234
REMARK   96  A    between atoms: _234  and  _235
REMARK   97  A    between atoms: _234  and  _237
REMARK   98  A    between atoms: _237  and  _238
REMARK   99  A    between atoms: _238  and  _239
REMARK  100  A    between atoms: _239  and  _240
REMARK  101  A    between atoms: _240  and  _241
REMARK  102  A    between atoms: _245  and  _247
REMARK  103  A    between atoms: _247  and  _248
REMARK  104  A    between atoms: _247  and  _250
REMARK  105  A    between atoms: _250  and  _251
REMARK  106  A    between atoms: _257  and  _259
REMARK  107  A    between atoms: _259  and  _260
REMARK  108  A    between atoms: _259  and  _262
REMARK  109  A    between atoms: _262  and  _263
REMARK  110  A    between atoms: _269  and  _271
REMARK  111  A    between atoms: _271  and  _272
REMARK  112  A    between atoms: _271  and  _274
REMARK  113  A    between atoms: _274  and  _275
REMARK  114  A    between atoms: _278  and  _280
REMARK  115  A    between atoms: _280  and  _281
REMARK  116  A    between atoms: _280  and  _283
REMARK  117  A    between atoms: _283  and  _284
REMARK  118  A    between atoms: _286  and  _288
REMARK  119  A    between atoms: _288  and  _289
REMARK  120  A    between atoms: _288  and  _291
REMARK  121  A    between atoms: _291  and  _292
REMARK  122  A    between atoms: _302  and  _304
REMARK  123  A    between atoms: _304  and  _305
REMARK  124  A    between atoms: _307  and  _309
REMARK  125  A    between atoms: _309  and  _310
REMARK  126  A    between atoms: _309  and  _312
REMARK  127  A    between atoms: _312  and  _313
REMARK  128  A    between atoms: _316  and  _318
REMARK  129  A    between atoms: _318  and  _319
REMARK  130  A    between atoms: _318  and  _321
REMARK  131  A    between atoms: _321  and  _322
REMARK  132  A    between atoms: _325  and  _327
REMARK  133  A    between atoms: _327  and  _328
REMARK  134  A    between atoms: _330  and  _332
REMARK  135  A    between atoms: _332  and  _333
REMARK  136  A    between atoms: _332  and  _335
REMARK  137  A    between atoms: _335  and  _336
REMARK  138  A    between atoms: _339  and  _341
REMARK  139  A    between atoms: _341  and  _342
REMARK  140  A    between atoms: _345  and  _347
REMARK  141  A    between atoms: _347  and  _348
REMARK  142  A    between atoms: _347  and  _350
REMARK  143  A    between atoms: _350  and  _351
REMARK  144  A    between atoms: _354  and  _356
REMARK  145  A    between atoms: _356  and  _357
REMARK  146  A    between atoms: _360  and  _362
REMARK  147  A    between atoms: _362  and  _363
REMARK  148  A    between atoms: _362  and  _365
REMARK  149  A    between atoms: _365  and  _366
REMARK  150  A    between atoms: _366  and  _367
REMARK  151  A    between atoms: _367  and  _368
REMARK  152  A    between atoms: _377  and  _379
REMARK  153  A    between atoms: _379  and  _380
REMARK  154  A    between atoms: _379  and  _382
REMARK  155  A    between atoms: _382  and  _383
REMARK  156  A    between atoms: _386  and  _388
REMARK  157  A    between atoms: _388  and  _389
REMARK  158  A    between atoms: _388  and  _391
REMARK  159  A    between atoms: _391  and  _392
REMARK  160  A    between atoms: _397  and  _398
REMARK  161  A    between atoms: _400  and  _402
REMARK  162  A    between atoms: _402  and  _403
REMARK  163  A    between atoms: _402  and  _405
REMARK  164  A    between atoms: _405  and  _406
REMARK  165  A    between atoms: _411  and  _412
REMARK  166  A    between atoms: _414  and  _416
REMARK  167  A    between atoms: _416  and  _417
REMARK  168  A    between atoms: _416  and  _419
REMARK  169  A    between atoms: _419  and  _420
REMARK  170  A    between atoms: _420  and  _421
REMARK  171  A    between atoms: _421  and  _422
REMARK  172  A    between atoms: _422  and  _423
REMARK  173  A    between atoms: _427  and  _429
REMARK  174  A    between atoms: _429  and  _430
REMARK  175  A    between atoms: _429  and  _432
REMARK  176  A    between atoms: _432  and  _433
REMARK  177  A    between atoms: _436  and  _438
REMARK  178  A    between atoms: _438  and  _439
REMARK  179  A    between atoms: _438  and  _441
REMARK  180  A    between atoms: _444  and  _446
REMARK  181  A    between atoms: _446  and  _447
REMARK  182  A    between atoms: _446  and  _449
REMARK  183  A    between atoms: _449  and  _450
REMARK  184  A    between atoms: _453  and  _455
REMARK  185  A    between atoms: _455  and  _456
REMARK  186  A    between atoms: _455  and  _458
REMARK  187  A    between atoms: _458  and  _459
REMARK  188  A    between atoms: _461  and  _463
REMARK  189  A    between atoms: _463  and  _464
REMARK  190  A    between atoms: _466  and  _468
REMARK  191  A    between atoms: _468  and  _469
REMARK  192  A    between atoms: _468  and  _471
REMARK  193  A    between atoms: _471  and  _472
REMARK  194  A    between atoms: _475  and  _477
REMARK  195  A    between atoms: _477  and  _478
REMARK  196  A    between atoms: _477  and  _480
REMARK  197  A    between atoms: _480  and  _481
REMARK  198  A    between atoms: _484  and  _486
REMARK  199  A    between atoms: _486  and  _487
REMARK  200  A    between atoms: _486  and  _489
REMARK  201  A    between atoms: _489  and  _490
REMARK  202  A    between atoms: _495  and  _497
REMARK  203  A    between atoms: _497  and  _498
REMARK  204  A    between atoms: _497  and  _500
REMARK  205  A    between atoms: _500  and  _501
REMARK  206  A    between atoms: _501  and  _502
REMARK  207  A    between atoms: _502  and  _503
REMARK  208  A    between atoms: _512  and  _514
REMARK  209  A    between atoms: _514  and  _515
REMARK  210  A    between atoms: _514  and  _517
REMARK  211  A    between atoms: _517  and  _518
REMARK  212  A    between atoms: _518  and  _519
REMARK  213  A    between atoms: _519  and  _520
REMARK  214  A    between atoms: _529  and  _531
REMARK  215  A    between atoms: _531  and  _532
REMARK  216  A    between atoms: _531  and  _534
REMARK  217  A    between atoms: _534  and  _535
REMARK  218  A    between atoms: _537  and  _539
REMARK  219  A    between atoms: _539  and  _540
REMARK  220  A    between atoms: _539  and  _542
REMARK  221  A    between atoms: _542  and  _543
REMARK  222  A    between atoms: _543  and  _544
REMARK  223  A    between atoms: _549  and  _551
REMARK  224  A    between atoms: _551  and  _552
REMARK  225  A    between atoms: _551  and  _554
REMARK  226  A    between atoms: _554  and  _555
REMARK  227  A    between atoms: _557  and  _559
REMARK  228  A    between atoms: _559  and  _560
REMARK  229  A    between atoms: _559  and  _562
REMARK  230  A    between atoms: _562  and  _563
REMARK  231  A    between atoms: _565  and  _567
REMARK  232  A    between atoms: _567  and  _568
REMARK  233  A    between atoms: _567  and  _570
REMARK  234  A    between atoms: _570  and  _571
REMARK  235  A    between atoms: _574  and  _576
REMARK  236  A    between atoms: _576  and  _577
REMARK  237  A    between atoms: _576  and  _579
REMARK  238  A    between atoms: _579  and  _580
REMARK  239  A    between atoms: _583  and  _585
REMARK  240  A    between atoms: _585  and  _586
REMARK  241  A    between atoms: _585  and  _588
REMARK  242  A    between atoms: _591  and  _593
REMARK  243  A    between atoms: _593  and  _594
REMARK  244  A    between atoms: _596  and  _598
REMARK  245  A    between atoms: _598  and  _599
REMARK  246  A    between atoms: _602  and  _604
REMARK  247  A    between atoms: _604  and  _605
REMARK  248  A    between atoms: _604  and  _607
REMARK                            x       y       z     vdW  Elec       q    Type
REMARK                         _______ _______ _______ _____ _____    ______ ____
ROOT
ATOM      1  C   ALA A   2      10.552   5.888  21.947  0.00  0.00    +0.241 C 
ATOM      2  O   ALA A   2       9.494   6.196  22.497  0.00  0.00    -0.273 OA
ATOM      3  N   ARG A   3      10.920   6.387  20.772  0.00  0.00    -0.298 N 
ATOM      4  H   ARG A   3      11.852   6.144  20.380  0.00  0.00    +0.150 HD
ENDROOT
BRANCH   1   5
ATOM      5  CA  ALA A   2      11.524   4.920  22.623  0.00  0.00    +0.149 C 
ATOM      6  CB  ALA A   2      11.185   3.487  22.227  0.00  0.00    +0.031 C 
BRANCH   5   8
ATOM      7  C   ILE A   1      11.961   6.129  24.660  0.00  0.00    +0.238 C 
ATOM      8  N   ALA A   2      11.407   5.080  24.066  0.00  0.00    -0.297 N 
ATOM      9  H   ALA A   2      10.891   4.374  24.629  0.00  0.00    +0.150 HD
ATOM     10  O   ILE A   1      12.596   6.979  24.026  0.00  0.00    -0.274 OA
BRANCH   7  11
ATOM     11  CA  ILE A   1      11.760   6.248  26.177  0.00  0.00    +0.145 C 
BRANCH  11  12
ATOM     12  N   ILE A   1      11.246   5.048  26.819  0.00  0.00    -0.238 NA
ATOM     13  H   ILE A   1      11.869   4.230  26.976  0.00  0.00    +0.142 HD
ENDBRANCH  11  12
BRANCH  11  14
ATOM     14  CB  ILE A   1      13.073   6.721  26.844  0.00  0.00    +0.025 C 
ATOM     15  CG2 ILE A   1      12.795   7.125  28.299  0.00  0.00    +0.002 C 
BRANCH  14  16
ATOM     16  CG1 ILE A   1      14.131   5.618  26.788  0.00  0.00    +0.002 C 
ATOM     17  CD1 ILE A   1      15.489   6.073  27.298  0.00  0.00    +0.000 C 
ENDBRANCH  14  16
ENDBRANCH  11  14
ENDBRANCH   7  11
ENDBRANCH   5   8
ENDBRANCH   1   5
BRANCH   3  18
ATOM     18  CA  ARG A   3      10.033   7.272  20.024  0.00  0.00    +0.137 C 
BRANCH  18  19
ATOM     19  C   ARG A   3       9.532   6.422  18.858  0.00  0.00    +0.227 C 
ATOM     20  O   ARG A   3      10.254   5.548  18.370  0.00  0.00    -0.286 OA
ENDBRANCH  18  19
BRANCH  18  21
ATOM     21  CB  ARG A   3      10.789   8.496  19.495  0.00  0.00    +0.031 C 
BRANCH  21  22
ATOM     22  CG  ARG A   3      11.511   9.327  20.574  0.00  0.00    +0.045 C 
BRANCH  22  23
ATOM     23  CD  ARG A   3      10.550   9.832  21.640  0.00  0.00    +0.174 C 
BRANCH  23  24
ATOM     24  NE  ARG A   3      11.078  10.969  22.402  0.00  0.00    -0.265 N 
ATOM     25  CZ  ARG A   3      11.831  10.886  23.501  0.00  0.00    +0.342 C 
ATOM     26  NH2 ARG A   3      12.220  12.003  24.106  0.00  0.00    -0.292 N 
ATOM     27 HH21 ARG A   3      12.807  11.953  24.963  0.00  0.00    +0.255 HD
ATOM     28 HH22 ARG A   3      11.938  12.928  23.723  0.00  0.00    +0.255 HD
ATOM     29  NH1 ARG A   3      12.182   9.709  24.018  0.00  0.00    -0.292 N 
ATOM     30 HH11 ARG A   3      12.770   9.672  24.875  0.00  0.00    +0.255 HD
ATOM     31 HH12 ARG A   3      11.868   8.827  23.564  0.00  0.00    +0.255 HD
ATOM     32  HE  ARG A   3      10.846  11.922  22.056  0.00  0.00    +0.259 HD
ENDBRANCH  23  24
ENDBRANCH  22  23
ENDBRANCH  21  22
ENDBRANCH  18  21
ENDBRANCH   3  18
TORSDOF 12
REMARK  Name = ../refined-set-2016/2qmg/2qmg_pocket.pdb
REMARK  248 active torsions:
REMARK  status: ('A' for Active; 'I' for Inactive)
REMARK    1  A    between atoms: _1  and  _3
REMARK    2  A    between atoms: _3  and  _4
REMARK    3  A    between atoms: _3  and  _6
REMARK    4  A    between atoms: _6  and  _7
REMARK    5  A    between atoms: _7  and  _8
REMARK    6  A    between atoms: _8  and  _9
REMARK    7  A    between atoms: _9  and  _10
REMARK    8  A    between atoms: _14  and  _16
REMARK    9  A    between atoms: _16  and  _17
REMARK   10  A    between atoms: _16  and  _19
REMARK   11  A    between atoms: _19  and  _20
REMARK   12  A    between atoms: _22  and  _24
REMARK   13  A    between atoms: _24  and  _25
REMARK   14  A    between atoms: _27  and  _29
REMARK   15  A    between atoms: _29  and  _30
REMARK   16  A    between atoms: _29  and  _32
REMARK   17  A    between atoms: _32  and  _33
REMARK   18  A    between atoms: _33  and  _34
REMARK   19  A    between atoms: _39  and  _41
REMARK   20  A    between atoms: _41  and  _42
REMARK   21  A    between atoms: _44  and  _46
REMARK   22  A    between atoms: _46  and  _47
REMARK   23  A    between atoms: _46  and  _49
REMARK   24  A    between atoms: _49  and  _50
REMARK   25  A    between atoms: _55  and  _56
REMARK   26  A    between atoms: _58  and  _60
REMARK   27  A    between atoms: _60  and  _61
REMARK   28  A    between atoms: _60  and  _63
REMARK   29  A    between atoms: _63  and  _64
REMARK   30  A    between atoms: _67  and  _69
REMARK   31  A    between atoms: _69  and  _70
REMARK   32  A    between atoms: _69  and  _72
REMARK   33  A    between atoms: _75  and  _77
REMARK   34  A    between atoms: _77  and  _78
REMARK   35  A    between atoms: _77  and  _80
REMARK   36  A    between atoms: _80  and  _81
REMARK   37  A    between atoms: _84  and  _86
REMARK   38  A    between atoms: _86  and  _87
REMARK   39  A    between atoms: _86  and  _89
REMARK   40  A    between atoms: _89  and  _90
REMARK   41  A    between atoms: _93  and  _95
REMARK   42  A    between atoms: _95  and  _96
REMARK   43  A    between atoms: _98  and  _100
REMARK   44  A    between atoms: _100  and  _101
REMARK   45  A    between atoms: _100  and  _103
REMARK   46  A    between atoms: _103  and  _104
REMARK   47  A    between atoms: _106  and  _108
REMARK   48  A    between atoms: _108  and  _109
REMARK   49  A    between atoms: _108  and  _111
REMARK   50  A    between atoms: _111  and  _112
REMARK   51  A    between atoms: _114  and  _116
REMARK   52  A    between atoms: _116  and  _117
REMARK   53  A    between atoms: _116  and  _119
REMARK   54  A    between atoms: _119  and  _120
REMARK   55  A    between atoms: _125  and  _127
REMARK   56  A    between atoms: _127  and  _128
REMARK   57  A    between atoms: _127  and  _130
REMARK   58  A    between atoms: _130  and  _131
REMARK   59  A    between atoms: _136  and  _137
REMARK   60  A    between atoms: _139  and  _141
REMARK   61  A    between atoms: _141  and  _142
REMARK   62  A    between atoms: _141  and  _144
REMARK   63  A    between atoms: _148  and  _149
REMARK   64  A    between atoms: _154  and  _156
REMARK   65  A    between atoms: _156  and  _157
REMARK   66  A    between atoms: _156  and  _159
REMARK   67  A    between atoms: _159  and  _160
REMARK   68  A    between atoms: _165  and  _166
REMARK   69  A    between atoms: _168  and  _170
REMARK   70  A    between atoms: _170  and  _171
REMARK   71  A    between atoms: _170  and  _173
REMARK   72  A    between atoms: _173  and  _174
REMARK   73  A    between atoms: _177  and  _179
REMARK   74  A    between atoms: _179  and  _180
REMARK   75  A    between atoms: _179  and  _182
REMARK   76  A    between atoms: _182  and  _183
REMARK   77  A    between atoms: _183  and  _184
REMARK   78  A    between atoms: _189  and  _191
REMARK   79  A    between atoms: _191  and  _192
REMARK   80  A    between atoms: _194  and  _196
REMARK   81  A    between atoms: _196  and  _197
REMARK   82  A    between atoms: _196  and  _199
REMARK   83  A    between atoms: _199  and  _200
REMARK   84  A    between atoms: _200  and  _201
REMARK   85  A    between atoms: _201  and  _202
REMARK   86  A    between atoms: _202  and  _203
REMARK   87  A    between atoms: _207  and  _209
REMARK   88  A    between atoms: _209  and  _210
REMARK   89  A    between atoms: _209  and  _212
REMARK   90  A    between atoms: _212  and  _213
REMARK   91  A    between atoms: _223  and  _225
REMARK   92  A    between atoms: _225  and  _226
REMARK   93  A    between atoms: _225  and  _228
REMARK   94  A    between atoms: _228  and  _229
REMARK   95  A    between atoms: _232  and  _234
REMARK   96  A    between atoms: _234  and  _235
REMARK   97  A    between atoms: _234  and  _237
REMARK   98  A    between atoms: _237  and  _238
REMARK   99  A    between atoms: _238  and  _239
REMARK  100  A    between atoms: _239  and  _240
REMARK  101  A    between atoms: _240  and  _241
REMARK  102  A    between atoms: _245  and  _247
REMARK  103  A    between atoms: _247  and  _248
REMARK  104  A    between atoms: _247  and  _250
REMARK  105  A    between atoms: _250  and  _251
REMARK  106  A    between atoms: _257  and  _259
REMARK  107  A    between atoms: _259  and  _260
REMARK  108  A    between atoms: _259  and  _262
REMARK  109  A    between atoms: _262  and  _263
REMARK  110  A    between atoms: _269  and  _271
REMARK  111  A    between atoms: _271  and  _272
REMARK  112  A    between atoms: _271  and  _274
REMARK  113  A    between atoms: _274  and  _275
REMARK  114  A    between atoms: _278  and  _280
REMARK  115  A    between atoms: _280  and  _281
REMARK  116  A    between atoms: _280  and  _283
REMARK  117  A    between atoms: _283  and  _284
REMARK  118  A    between atoms: _286  and  _288
REMARK  119  A    between atoms: _288  and  _289
REMARK  120  A    between atoms: _288  and  _291
REMARK  121  A    between atoms: _291  and  _292
REMARK  122  A    between atoms: _302  and  _304
REMARK  123  A    between atoms: _304  and  _305
REMARK  124  A    between atoms: _307  and  _309
REMARK  125  A    between atoms: _309  and  _310
REMARK  126  A    between atoms: _309  and  _312
REMARK  127  A    between atoms: _312  and  _313
REMARK  128  A    between atoms: _316  and  _318
REMARK  129  A    between atoms: _318  and  _319
REMARK  130  A    between atoms: _318  and  _321
REMARK  131  A    between atoms: _321  and  _322
REMARK  132  A    between atoms: _325  and  _327
REMARK  133  A    between atoms: _327  and  _328
REMARK  134  A    between atoms: _330  and  _332
REMARK  135  A    between atoms: _332  and  _333
REMARK  136  A    between atoms: _332  and  _335
REMARK  137  A    between atoms: _335  and  _336
REMARK  138  A    between atoms: _339  and  _341
REMARK  139  A    between atoms: _341  and  _342
REMARK  140  A    between atoms: _345  and  _347
REMARK  141  A    between atoms: _347  and  _348
REMARK  142  A    between atoms: _347  and  _350
REMARK  143  A    between atoms: _350  and  _351
REMARK  144  A    between atoms: _354  and  _356
REMARK  145  A    between atoms: _356  and  _357
REMARK  146  A    between atoms: _360  and  _362
REMARK  147  A    between atoms: _362  and  _363
REMARK  148  A    between atoms: _362  and  _365
REMARK  149  A    between atoms: _365  and  _366
REMARK  150  A    between atoms: _366  and  _367
REMARK  151  A    between atoms: _367  and  _368
REMARK  152  A    between atoms: _377  and  _379
REMARK  153  A    between atoms: _379  and  _380
REMARK  154  A    between atoms: _379  and  _382
REMARK  155  A    between atoms: _382  and  _383
REMARK  156  A    between atoms: _386  and  _388
REMARK  157  A    between atoms: _388  and  _389
REMARK  158  A    between atoms: _388  and  _391
REMARK  159  A    between atoms: _391  and  _392
REMARK  160  A    between atoms: _397  and  _398
REMARK  161  A    between atoms: _400  and  _402
REMARK  162  A    between atoms: _402  and  _403
REMARK  163  A    between atoms: _402  and  _405
REMARK  164  A    between atoms: _405  and  _406
REMARK  165  A    between atoms: _411  and  _412
REMARK  166  A    between atoms: _414  and  _416
REMARK  167  A    between atoms: _416  and  _417
REMARK  168  A    between atoms: _416  and  _419
REMARK  169  A    between atoms: _419  and  _420
REMARK  170  A    between atoms: _420  and  _421
REMARK  171  A    between atoms: _421  and  _422
REMARK  172  A    between atoms: _422  and  _423
REMARK  173  A    between atoms: _427  and  _429
REMARK  174  A    between atoms: _429  and  _430
REMARK  175  A    between atoms: _429  and  _432
REMARK  176  A    between atoms: _432  and  _433
REMARK  177  A    between atoms: _436  and  _438
REMARK  178  A    between atoms: _438  and  _439
REMARK  179  A    between atoms: _438  and  _441
REMARK  180  A    between atoms: _444  and  _446
REMARK  181  A    between atoms: _446  and  _447
REMARK  182  A    between atoms: _446  and  _449
REMARK  183  A    between atoms: _449  and  _450
REMARK  184  A    between atoms: _453  and  _455
REMARK  185  A    between atoms: _455  and  _456
REMARK  186  A    between atoms: _455  and  _458
REMARK  187  A    between atoms: _458  and  _459
REMARK  188  A    between atoms: _461  and  _463
REMARK  189  A    between atoms: _463  and  _464
REMARK  190  A    between atoms: _466  and  _468
REMARK  191  A    between atoms: _468  and  _469
REMARK  192  A    between atoms: _468  and  _471
REMARK  193  A    between atoms: _471  and  _472
REMARK  194  A    between atoms: _475  and  _477
REMARK  195  A    between atoms: _477  and  _478
REMARK  196  A    between atoms: _477  and  _480
REMARK  197  A    between atoms: _480  and  _481
REMARK  198  A    between atoms: _484  and  _486
REMARK  199  A    between atoms: _486  and  _487
REMARK  200  A    between atoms: _486  and  _489
REMARK  201  A    between atoms: _489  and  _490
REMARK  202  A    between atoms: _495  and  _497
REMARK  203  A    between atoms: _497  and  _498
REMARK  204  A    between atoms: _497  and  _500
REMARK  205  A    between atoms: _500  and  _501
REMARK  206  A    between atoms: _501  and  _502
REMARK  207  A    between atoms: _502  and  _503
REMARK  208  A    between atoms: _512  and  _514
REMARK  209  A    between atoms: _514  and  _515
REMARK  210  A    between atoms: _514  and  _517
REMARK  211  A    between atoms: _517  and  _518
REMARK  212  A    between atoms: _518  and  _519
REMARK  213  A    between atoms: _519  and  _520
REMARK  214  A    between atoms: _529  and  _531
REMARK  215  A    between atoms: _531  and  _532
REMARK  216  A    between atoms: _531  and  _534
REMARK  217  A    between atoms: _534  and  _535
REMARK  218  A    between atoms: _537  and  _539
REMARK  219  A    between atoms: _539  and  _540
REMARK  220  A    between atoms: _539  and  _542
REMARK  221  A    between atoms: _542  and  _543
REMARK  222  A    between atoms: _543  and  _544
REMARK  223  A    between atoms: _549  and  _551
REMARK  224  A    between atoms: _551  and  _552
REMARK  225  A    between atoms: _551  and  _554
REMARK  226  A    between atoms: _554  and  _555
REMARK  227  A    between atoms: _557  and  _559
REMARK  228  A    between atoms: _559  and  _560
REMARK  229  A    between atoms: _559  and  _562
REMARK  230  A    between atoms: _562  and  _563
REMARK  231  A    between atoms: _565  and  _567
REMARK  232  A    between atoms: _567  and  _568
REMARK  233  A    between atoms: _567  and  _570
REMARK  234  A    between atoms: _570  and  _571
REMARK  235  A    between atoms: _574  and  _576
REMARK  236  A    between atoms: _576  and  _577
REMARK  237  A    between atoms: _576  and  _579
REMARK  238  A    between atoms: _579  and  _580
REMARK  239  A    between atoms: _583  and  _585
REMARK  240  A    between atoms: _585  and  _586
REMARK  241  A    between atoms: _585  and  _588
REMARK  242  A    between atoms: _591  and  _593
REMARK  243  A    between atoms: _593  and  _594
REMARK  244  A    between atoms: _596  and  _598
REMARK  245  A    between atoms: _598  and  _599
REMARK  246  A    between atoms: _602  and  _604
REMARK  247  A    between atoms: _604  and  _605
REMARK  248  A    between atoms: _604  and  _607
REMARK                            x       y       z     vdW  Elec       q    Type
REMARK                         _______ _______ _______ _____ _____    ______ ____
ROOT
ATOM      1  CA  LEU A   1      34.753   0.761  26.784  0.00  0.00    +0.133 C 
ENDROOT
BRANCH   1   2
ATOM      2  N   LEU A   1      34.349  -0.300  27.716  0.00  0.00    -0.239 NA
ATOM      3  H   LEU A   1      34.018  -0.047  28.669  0.00  0.00    +0.142 HD
ENDBRANCH   1   2
BRANCH   1   4
ATOM      4  C   LEU A   1      36.216   1.068  27.118  0.00  0.00    +0.224 C 
ATOM      5  O   LEU A   1      36.542   1.357  28.268  0.00  0.00    -0.287 OA
ENDBRANCH   1   4
BRANCH   1   6
ATOM      6  CB  LEU A   1      33.883   2.018  26.962  0.00  0.00    +0.025 C 
BRANCH   6   7
ATOM      7  CG  LEU A   1      32.362   1.835  26.826  0.00  0.00    +0.002 C 
ATOM      8  CD2 LEU A   1      31.648   3.196  26.828  0.00  0.00    +0.000 C 
ATOM      9  CD1 LEU A   1      32.066   1.090  25.537  0.00  0.00    +0.000 C 
ENDBRANCH   6   7
ENDBRANCH   1   6
TORSDOF 4
REMARK  Name = ../refined-set-2016/2qmg/2qmg_pocket.pdb
REMARK  248 active torsions:
REMARK  status: ('A' for Active; 'I' for Inactive)
REMARK    1  A    between atoms: _1  and  _3
REMARK    2  A    between atoms: _3  and  _4
REMARK    3  A    between atoms: _3  and  _6
REMARK    4  A    between atoms: _6  and  _7
REMARK    5  A    between atoms: _7  and  _8
REMARK    6  A    between atoms: _8  and  _9
REMARK    7  A    between atoms: _9  and  _10
REMARK    8  A    between atoms: _14  and  _16
REMARK    9  A    between atoms: _16  and  _17
REMARK   10  A    between atoms: _16  and  _19
REMARK   11  A    between atoms: _19  and  _20
REMARK   12  A    between atoms: _22  and  _24
REMARK   13  A    between atoms: _24  and  _25
REMARK   14  A    between atoms: _27  and  _29
REMARK   15  A    between atoms: _29  and  _30
REMARK   16  A    between atoms: _29  and  _32
REMARK   17  A    between atoms: _32  and  _33
REMARK   18  A    between atoms: _33  and  _34
REMARK   19  A    between atoms: _39  and  _41
REMARK   20  A    between atoms: _41  and  _42
REMARK   21  A    between atoms: _44  and  _46
REMARK   22  A    between atoms: _46  and  _47
REMARK   23  A    between atoms: _46  and  _49
REMARK   24  A    between atoms: _49  and  _50
REMARK   25  A    between atoms: _55  and  _56
REMARK   26  A    between atoms: _58  and  _60
REMARK   27  A    between atoms: _60  and  _61
REMARK   28  A    between atoms: _60  and  _63
REMARK   29  A    between atoms: _63  and  _64
REMARK   30  A    between atoms: _67  and  _69
REMARK   31  A    between atoms: _69  and  _70
REMARK   32  A    between atoms: _69  and  _72
REMARK   33  A    between atoms: _75  and  _77
REMARK   34  A    between atoms: _77  and  _78
REMARK   35  A    between atoms: _77  and  _80
REMARK   36  A    between atoms: _80  and  _81
REMARK   37  A    between atoms: _84  and  _86
REMARK   38  A    between atoms: _86  and  _87
REMARK   39  A    between atoms: _86  and  _89
REMARK   40  A    between atoms: _89  and  _90
REMARK   41  A    between atoms: _93  and  _95
REMARK   42  A    between atoms: _95  and  _96
REMARK   43  A    between atoms: _98  and  _100
REMARK   44  A    between atoms: _100  and  _101
REMARK   45  A    between atoms: _100  and  _103
REMARK   46  A    between atoms: _103  and  _104
REMARK   47  A    between atoms: _106  and  _108
REMARK   48  A    between atoms: _108  and  _109
REMARK   49  A    between atoms: _108  and  _111
REMARK   50  A    between atoms: _111  and  _112
REMARK   51  A    between atoms: _114  and  _116
REMARK   52  A    between atoms: _116  and  _117
REMARK   53  A    between atoms: _116  and  _119
REMARK   54  A    between atoms: _119  and  _120
REMARK   55  A    between atoms: _125  and  _127
REMARK   56  A    between atoms: _127  and  _128
REMARK   57  A    between atoms: _127  and  _130
REMARK   58  A    between atoms: _130  and  _131
REMARK   59  A    between atoms: _136  and  _137
REMARK   60  A    between atoms: _139  and  _141
REMARK   61  A    between atoms: _141  and  _142
REMARK   62  A    between atoms: _141  and  _144
REMARK   63  A    between atoms: _148  and  _149
REMARK   64  A    between atoms: _154  and  _156
REMARK   65  A    between atoms: _156  and  _157
REMARK   66  A    between atoms: _156  and  _159
REMARK   67  A    between atoms: _159  and  _160
REMARK   68  A    between atoms: _165  and  _166
REMARK   69  A    between atoms: _168  and  _170
REMARK   70  A    between atoms: _170  and  _171
REMARK   71  A    between atoms: _170  and  _173
REMARK   72  A    between atoms: _173  and  _174
REMARK   73  A    between atoms: _177  and  _179
REMARK   74  A    between atoms: _179  and  _180
REMARK   75  A    between atoms: _179  and  _182
REMARK   76  A    between atoms: _182  and  _183
REMARK   77  A    between atoms: _183  and  _184
REMARK   78  A    between atoms: _189  and  _191
REMARK   79  A    between atoms: _191  and  _192
REMARK   80  A    between atoms: _194  and  _196
REMARK   81  A    between atoms: _196  and  _197
REMARK   82  A    between atoms: _196  and  _199
REMARK   83  A    between atoms: _199  and  _200
REMARK   84  A    between atoms: _200  and  _201
REMARK   85  A    between atoms: _201  and  _202
REMARK   86  A    between atoms: _202  and  _203
REMARK   87  A    between atoms: _207  and  _209
REMARK   88  A    between atoms: _209  and  _210
REMARK   89  A    between atoms: _209  and  _212
REMARK   90  A    between atoms: _212  and  _213
REMARK   91  A    between atoms: _223  and  _225
REMARK   92  A    between atoms: _225  and  _226
REMARK   93  A    between atoms: _225  and  _228
REMARK   94  A    between atoms: _228  and  _229
REMARK   95  A    between atoms: _232  and  _234
REMARK   96  A    between atoms: _234  and  _235
REMARK   97  A    between atoms: _234  and  _237
REMARK   98  A    between atoms: _237  and  _238
REMARK   99  A    between atoms: _238  and  _239
REMARK  100  A    between atoms: _239  and  _240
REMARK  101  A    between atoms: _240  and  _241
REMARK  102  A    between atoms: _245  and  _247
REMARK  103  A    between atoms: _247  and  _248
REMARK  104  A    between atoms: _247  and  _250
REMARK  105  A    between atoms: _250  and  _251
REMARK  106  A    between atoms: _257  and  _259
REMARK  107  A    between atoms: _259  and  _260
REMARK  108  A    between atoms: _259  and  _262
REMARK  109  A    between atoms: _262  and  _263
REMARK  110  A    between atoms: _269  and  _271
REMARK  111  A    between atoms: _271  and  _272
REMARK  112  A    between atoms: _271  and  _274
REMARK  113  A    between atoms: _274  and  _275
REMARK  114  A    between atoms: _278  and  _280
REMARK  115  A    between atoms: _280  and  _281
REMARK  116  A    between atoms: _280  and  _283
REMARK  117  A    between atoms: _283  and  _284
REMARK  118  A    between atoms: _286  and  _288
REMARK  119  A    between atoms: _288  and  _289
REMARK  120  A    between atoms: _288  and  _291
REMARK  121  A    between atoms: _291  and  _292
REMARK  122  A    between atoms: _302  and  _304
REMARK  123  A    between atoms: _304  and  _305
REMARK  124  A    between atoms: _307  and  _309
REMARK  125  A    between atoms: _309  and  _310
REMARK  126  A    between atoms: _309  and  _312
REMARK  127  A    between atoms: _312  and  _313
REMARK  128  A    between atoms: _316  and  _318
REMARK  129  A    between atoms: _318  and  _319
REMARK  130  A    between atoms: _318  and  _321
REMARK  131  A    between atoms: _321  and  _322
REMARK  132  A    between atoms: _325  and  _327
REMARK  133  A    between atoms: _327  and  _328
REMARK  134  A    between atoms: _330  and  _332
REMARK  135  A    between atoms: _332  and  _333
REMARK  136  A    between atoms: _332  and  _335
REMARK  137  A    between atoms: _335  and  _336
REMARK  138  A    between atoms: _339  and  _341
REMARK  139  A    between atoms: _341  and  _342
REMARK  140  A    between atoms: _345  and  _347
REMARK  141  A    between atoms: _347  and  _348
REMARK  142  A    between atoms: _347  and  _350
REMARK  143  A    between atoms: _350  and  _351
REMARK  144  A    between atoms: _354  and  _356
REMARK  145  A    between atoms: _356  and  _357
REMARK  146  A    between atoms: _360  and  _362
REMARK  147  A    between atoms: _362  and  _363
REMARK  148  A    between atoms: _362  and  _365
REMARK  149  A    between atoms: _365  and  _366
REMARK  150  A    between atoms: _366  and  _367
REMARK  151  A    between atoms: _367  and  _368
REMARK  152  A    between atoms: _377  and  _379
REMARK  153  A    between atoms: _379  and  _380
REMARK  154  A    between atoms: _379  and  _382
REMARK  155  A    between atoms: _382  and  _383
REMARK  156  A    between atoms: _386  and  _388
REMARK  157  A    between atoms: _388  and  _389
REMARK  158  A    between atoms: _388  and  _391
REMARK  159  A    between atoms: _391  and  _392
REMARK  160  A    between atoms: _397  and  _398
REMARK  161  A    between atoms: _400  and  _402
REMARK  162  A    between atoms: _402  and  _403
REMARK  163  A    between atoms: _402  and  _405
REMARK  164  A    between atoms: _405  and  _406
REMARK  165  A    between atoms: _411  and  _412
REMARK  166  A    between atoms: _414  and  _416
REMARK  167  A    between atoms: _416  and  _417
REMARK  168  A    between atoms: _416  and  _419
REMARK  169  A    between atoms: _419  and  _420
REMARK  170  A    between atoms: _420  and  _421
REMARK  171  A    between atoms: _421  and  _422
REMARK  172  A    between atoms: _422  and  _423
REMARK  173  A    between atoms: _427  and  _429
REMARK  174  A    between atoms: _429  and  _430
REMARK  175  A    between atoms: _429  and  _432
REMARK  176  A    between atoms: _432  and  _433
REMARK  177  A    between atoms: _436  and  _438
REMARK  178  A    between atoms: _438  and  _439
REMARK  179  A    between atoms: _438  and  _441
REMARK  180  A    between atoms: _444  and  _446
REMARK  181  A    between atoms: _446  and  _447
REMARK  182  A    between atoms: _446  and  _449
REMARK  183  A    between atoms: _449  and  _450
REMARK  184  A    between atoms: _453  and  _455
REMARK  185  A    between atoms: _455  and  _456
REMARK  186  A    between atoms: _455  and  _458
REMARK  187  A    between atoms: _458  and  _459
REMARK  188  A    between atoms: _461  and  _463
REMARK  189  A    between atoms: _463  and  _464
REMARK  190  A    between atoms: _466  and  _468
REMARK  191  A    between atoms: _468  and  _469
REMARK  192  A    between atoms: _468  and  _471
REMARK  193  A    between atoms: _471  and  _472
REMARK  194  A    between atoms: _475  and  _477
REMARK  195  A    between atoms: _477  and  _478
REMARK  196  A    between atoms: _477  and  _480
REMARK  197  A    between atoms: _480  and  _481
REMARK  198  A    between atoms: _484  and  _486
REMARK  199  A    between atoms: _486  and  _487
REMARK  200  A    between atoms: _486  and  _489
REMARK  201  A    between atoms: _489  and  _490
REMARK  202  A    between atoms: _495  and  _497
REMARK  203  A    between atoms: _497  and  _498
REMARK  204  A    between atoms: _497  and  _500
REMARK  205  A    between atoms: _500  and  _501
REMARK  206  A    between atoms: _501  and  _502
REMARK  207  A    between atoms: _502  and  _503
REMARK  208  A    between atoms: _512  and  _514
REMARK  209  A    between atoms: _514  and  _515
REMARK  210  A    between atoms: _514  and  _517
REMARK  211  A    between atoms: _517  and  _518
REMARK  212  A    between atoms: _518  and  _519
REMARK  213  A    between atoms: _519  and  _520
REMARK  214  A    between atoms: _529  and  _531
REMARK  215  A    between atoms: _531  and  _532
REMARK  216  A    between atoms: _531  and  _534
REMARK  217  A    between atoms: _534  and  _535
REMARK  218  A    between atoms: _537  and  _539
REMARK  219  A    between atoms: _539  and  _540
REMARK  220  A    between atoms: _539  and  _542
REMARK  221  A    between atoms: _542  and  _543
REMARK  222  A    between atoms: _543  and  _544
REMARK  223  A    between atoms: _549  and  _551
REMARK  224  A    between atoms: _551  and  _552
REMARK  225  A    between atoms: _551  and  _554
REMARK  226  A    between atoms: _554  and  _555
REMARK  227  A    between atoms: _557  and  _559
REMARK  228  A    between atoms: _559  and  _560
REMARK  229  A    between atoms: _559  and  _562
REMARK  230  A    between atoms: _562  and  _563
REMARK  231  A    between atoms: _565  and  _567
REMARK  232  A    between atoms: _567  and  _568
REMARK  233  A    between atoms: _567  and  _570
REMARK  234  A    between atoms: _570  and  _571
REMARK  235  A    between atoms: _574  and  _576
REMARK  236  A    between atoms: _576  and  _577
REMARK  237  A    between atoms: _576  and  _579
REMARK  238  A    between atoms: _579  and  _580
REMARK  239  A    between atoms: _583  and  _585
REMARK  240  A    between atoms: _585  and  _586
REMARK  241  A    between atoms: _585  and  _588
REMARK  242  A    between atoms: _591  and  _593
REMARK  243  A    between atoms: _593  and  _594
REMARK  244  A    between atoms: _596  and  _598
REMARK  245  A    between atoms: _598  and  _599
REMARK  246  A    between atoms: _602  and  _604
REMARK  247  A    between atoms: _604  and  _605
REMARK  248  A    between atoms: _604  and  _607
REMARK                            x       y       z     vdW  Elec       q    Type
REMARK                         _______ _______ _______ _____ _____    ______ ____
ROOT
ATOM      1  C   TYR A   1      17.465   3.896  31.994  0.00  0.00    +0.239 C 
ATOM      2  O   TYR A   1      16.704   3.267  32.731  0.00  0.00    -0.274 OA
ATOM      3  N   TYR A   2      18.775   3.688  31.998  0.00  0.00    -0.298 N 
ATOM      4  H   TYR A   2      19.389   4.153  31.299  0.00  0.00    +0.150 HD
ENDROOT
BRANCH   1   5
ATOM      5  CA  TYR A   1      16.909   4.939  31.032  0.00  0.00    +0.149 C 
BRANCH   5   6
ATOM      6  N   TYR A   1      15.485   4.754  31.314  0.00  0.00    -0.238 NA
ATOM      7  H   TYR A   1      15.032   5.324  32.057  0.00  0.00    +0.142 HD
ENDBRANCH   5   6
BRANCH   5   8
ATOM      8  CB  TYR A   1      17.418   6.293  31.543  0.00  0.00    +0.053 C 
BRANCH   8   9
ATOM      9  CG  TYR A   1      16.956   7.483  30.759  0.00  0.00    -0.020 A 
ATOM     10  CD2 TYR A   1      15.899   8.264  31.208  0.00  0.00    -0.001 A 
ATOM     11  CE2 TYR A   1      15.473   9.366  30.488  0.00  0.00    +0.036 A 
ATOM     12  CZ  TYR A   1      16.109   9.692  29.307  0.00  0.00    +0.134 A 
ATOM     13  CE1 TYR A   1      17.159   8.926  28.839  0.00  0.00    +0.036 A 
ATOM     14  CD1 TYR A   1      17.576   7.830  29.567  0.00  0.00    -0.001 A 
BRANCH  12  15
ATOM     15  OH  TYR A   1      15.721  10.805  28.599  0.00  0.00    -0.506 OA
ATOM     16  HH  TYR A   1      14.769  10.715  28.341  0.00  0.00    +0.292 HD
ENDBRANCH  12  15
ENDBRANCH   8   9
ENDBRANCH   5   8
ENDBRANCH   1   5
BRANCH   3  17
ATOM     17  CA  TYR A   2      19.332   2.796  33.001  0.00  0.00    +0.141 C 
BRANCH  17  18
ATOM     18  C   TYR A   2      19.594   3.757  34.168  0.00  0.00    +0.227 C 
ATOM     19  O   TYR A   2      20.703   4.272  34.335  0.00  0.00    -0.286 OA
ENDBRANCH  17  18
BRANCH  17  20
ATOM     20  CB  TYR A   2      20.634   2.148  32.521  0.00  0.00    +0.054 C 
BRANCH  20  21
ATOM     21  CG  TYR A   2      20.373   1.036  31.539  0.00  0.00    -0.020 A 
ATOM     22  CD2 TYR A   2      19.835  -0.175  31.965  0.00  0.00    -0.001 A 
ATOM     23  CE2 TYR A   2      19.501  -1.171  31.063  0.00  0.00    +0.036 A 
ATOM     24  CZ  TYR A   2      19.705  -0.961  29.718  0.00  0.00    +0.134 A 
ATOM     25  CE1 TYR A   2      20.249   0.233  29.270  0.00  0.00    +0.036 A 
ATOM     26  CD1 TYR A   2      20.579   1.220  30.179  0.00  0.00    -0.001 A 
BRANCH  24  27
ATOM     27  OH  TYR A   2      19.352  -1.933  28.806  0.00  0.00    -0.506 OA
ATOM     28  HH  TYR A   2      19.566  -1.619  27.892  0.00  0.00    +0.292 HD
ENDBRANCH  24  27
ENDBRANCH  20  21
ENDBRANCH  17  20
ENDBRANCH   3  17
TORSDOF 10
REMARK  Name = ../refined-set-2016/2qmg/2qmg_pocket.pdb
REMARK  248 active torsions:
REMARK  status: ('A' for Active; 'I' for Inactive)
REMARK    1  A    between atoms: _1  and  _3
REMARK    2  A    between atoms: _3  and  _4
REMARK    3  A    between atoms: _3  and  _6
REMARK    4  A    between atoms: _6  and  _7
REMARK    5  A    between atoms: _7  and  _8
REMARK    6  A    between atoms: _8  and  _9
REMARK    7  A    between atoms: _9  and  _10
REMARK    8  A    between atoms: _14  and  _16
REMARK    9  A    between atoms: _16  and  _17
REMARK   10  A    between atoms: _16  and  _19
REMARK   11  A    between atoms: _19  and  _20
REMARK   12  A    between atoms: _22  and  _24
REMARK   13  A    between atoms: _24  and  _25
REMARK   14  A    between atoms: _27  and  _29
REMARK   15  A    between atoms: _29  and  _30
REMARK   16  A    between atoms: _29  and  _32
REMARK   17  A    between atoms: _32  and  _33
REMARK   18  A    between atoms: _33  and  _34
REMARK   19  A    between atoms: _39  and  _41
REMARK   20  A    between atoms: _41  and  _42
REMARK   21  A    between atoms: _44  and  _46
REMARK   22  A    between atoms: _46  and  _47
REMARK   23  A    between atoms: _46  and  _49
REMARK   24  A    between atoms: _49  and  _50
REMARK   25  A    between atoms: _55  and  _56
REMARK   26  A    between atoms: _58  and  _60
REMARK   27  A    between atoms: _60  and  _61
REMARK   28  A    between atoms: _60  and  _63
REMARK   29  A    between atoms: _63  and  _64
REMARK   30  A    between atoms: _67  and  _69
REMARK   31  A    between atoms: _69  and  _70
REMARK   32  A    between atoms: _69  and  _72
REMARK   33  A    between atoms: _75  and  _77
REMARK   34  A    between atoms: _77  and  _78
REMARK   35  A    between atoms: _77  and  _80
REMARK   36  A    between atoms: _80  and  _81
REMARK   37  A    between atoms: _84  and  _86
REMARK   38  A    between atoms: _86  and  _87
REMARK   39  A    between atoms: _86  and  _89
REMARK   40  A    between atoms: _89  and  _90
REMARK   41  A    between atoms: _93  and  _95
REMARK   42  A    between atoms: _95  and  _96
REMARK   43  A    between atoms: _98  and  _100
REMARK   44  A    between atoms: _100  and  _101
REMARK   45  A    between atoms: _100  and  _103
REMARK   46  A    between atoms: _103  and  _104
REMARK   47  A    between atoms: _106  and  _108
REMARK   48  A    between atoms: _108  and  _109
REMARK   49  A    between atoms: _108  and  _111
REMARK   50  A    between atoms: _111  and  _112
REMARK   51  A    between atoms: _114  and  _116
REMARK   52  A    between atoms: _116  and  _117
REMARK   53  A    between atoms: _116  and  _119
REMARK   54  A    between atoms: _119  and  _120
REMARK   55  A    between atoms: _125  and  _127
REMARK   56  A    between atoms: _127  and  _128
REMARK   57  A    between atoms: _127  and  _130
REMARK   58  A    between atoms: _130  and  _131
REMARK   59  A    between atoms: _136  and  _137
REMARK   60  A    between atoms: _139  and  _141
REMARK   61  A    between atoms: _141  and  _142
REMARK   62  A    between atoms: _141  and  _144
REMARK   63  A    between atoms: _148  and  _149
REMARK   64  A    between atoms: _154  and  _156
REMARK   65  A    between atoms: _156  and  _157
REMARK   66  A    between atoms: _156  and  _159
REMARK   67  A    between atoms: _159  and  _160
REMARK   68  A    between atoms: _165  and  _166
REMARK   69  A    between atoms: _168  and  _170
REMARK   70  A    between atoms: _170  and  _171
REMARK   71  A    between atoms: _170  and  _173
REMARK   72  A    between atoms: _173  and  _174
REMARK   73  A    between atoms: _177  and  _179
REMARK   74  A    between atoms: _179  and  _180
REMARK   75  A    between atoms: _179  and  _182
REMARK   76  A    between atoms: _182  and  _183
REMARK   77  A    between atoms: _183  and  _184
REMARK   78  A    between atoms: _189  and  _191
REMARK   79  A    between atoms: _191  and  _192
REMARK   80  A    between atoms: _194  and  _196
REMARK   81  A    between atoms: _196  and  _197
REMARK   82  A    between atoms: _196  and  _199
REMARK   83  A    between atoms: _199  and  _200
REMARK   84  A    between atoms: _200  and  _201
REMARK   85  A    between atoms: _201  and  _202
REMARK   86  A    between atoms: _202  and  _203
REMARK   87  A    between atoms: _207  and  _209
REMARK   88  A    between atoms: _209  and  _210
REMARK   89  A    between atoms: _209  and  _212
REMARK   90  A    between atoms: _212  and  _213
REMARK   91  A    between atoms: _223  and  _225
REMARK   92  A    between atoms: _225  and  _226
REMARK   93  A    between atoms: _225  and  _228
REMARK   94  A    between atoms: _228  and  _229
REMARK   95  A    between atoms: _232  and  _234
REMARK   96  A    between atoms: _234  and  _235
REMARK   97  A    between atoms: _234  and  _237
REMARK   98  A    between atoms: _237  and  _238
REMARK   99  A    between atoms: _238  and  _239
REMARK  100  A    between atoms: _239  and  _240
REMARK  101  A    between atoms: _240  and  _241
REMARK  102  A    between atoms: _245  and  _247
REMARK  103  A    between atoms: _247  and  _248
REMARK  104  A    between atoms: _247  and  _250
REMARK  105  A    between atoms: _250  and  _251
REMARK  106  A    between atoms: _257  and  _259
REMARK  107  A    between atoms: _259  and  _260
REMARK  108  A    between atoms: _259  and  _262
REMARK  109  A    between atoms: _262  and  _263
REMARK  110  A    between atoms: _269  and  _271
REMARK  111  A    between atoms: _271  and  _272
REMARK  112  A    between atoms: _271  and  _274
REMARK  113  A    between atoms: _274  and  _275
REMARK  114  A    between atoms: _278  and  _280
REMARK  115  A    between atoms: _280  and  _281
REMARK  116  A    between atoms: _280  and  _283
REMARK  117  A    between atoms: _283  and  _284
REMARK  118  A    between atoms: _286  and  _288
REMARK  119  A    between atoms: _288  and  _289
REMARK  120  A    between atoms: _288  and  _291
REMARK  121  A    between atoms: _291  and  _292
REMARK  122  A    between atoms: _302  and  _304
REMARK  123  A    between atoms: _304  and  _305
REMARK  124  A    between atoms: _307  and  _309
REMARK  125  A    between atoms: _309  and  _310
REMARK  126  A    between atoms: _309  and  _312
REMARK  127  A    between atoms: _312  and  _313
REMARK  128  A    between atoms: _316  and  _318
REMARK  129  A    between atoms: _318  and  _319
REMARK  130  A    between atoms: _318  and  _321
REMARK  131  A    between atoms: _321  and  _322
REMARK  132  A    between atoms: _325  and  _327
REMARK  133  A    between atoms: _327  and  _328
REMARK  134  A    between atoms: _330  and  _332
REMARK  135  A    between atoms: _332  and  _333
REMARK  136  A    between atoms: _332  and  _335
REMARK  137  A    between atoms: _335  and  _336
REMARK  138  A    between atoms: _339  and  _341
REMARK  139  A    between atoms: _341  and  _342
REMARK  140  A    between atoms: _345  and  _347
REMARK  141  A    between atoms: _347  and  _348
REMARK  142  A    between atoms: _347  and  _350
REMARK  143  A    between atoms: _350  and  _351
REMARK  144  A    between atoms: _354  and  _356
REMARK  145  A    between atoms: _356  and  _357
REMARK  146  A    between atoms: _360  and  _362
REMARK  147  A    between atoms: _362  and  _363
REMARK  148  A    between atoms: _362  and  _365
REMARK  149  A    between atoms: _365  and  _366
REMARK  150  A    between atoms: _366  and  _367
REMARK  151  A    between atoms: _367  and  _368
REMARK  152  A    between atoms: _377  and  _379
REMARK  153  A    between atoms: _379  and  _380
REMARK  154  A    between atoms: _379  and  _382
REMARK  155  A    between atoms: _382  and  _383
REMARK  156  A    between atoms: _386  and  _388
REMARK  157  A    between atoms: _388  and  _389
REMARK  158  A    between atoms: _388  and  _391
REMARK  159  A    between atoms: _391  and  _392
REMARK  160  A    between atoms: _397  and  _398
REMARK  161  A    between atoms: _400  and  _402
REMARK  162  A    between atoms: _402  and  _403
REMARK  163  A    between atoms: _402  and  _405
REMARK  164  A    between atoms: _405  and  _406
REMARK  165  A    between atoms: _411  and  _412
REMARK  166  A    between atoms: _414  and  _416
REMARK  167  A    between atoms: _416  and  _417
REMARK  168  A    between atoms: _416  and  _419
REMARK  169  A    between atoms: _419  and  _420
REMARK  170  A    between atoms: _420  and  _421
REMARK  171  A    between atoms: _421  and  _422
REMARK  172  A    between atoms: _422  and  _423
REMARK  173  A    between atoms: _427  and  _429
REMARK  174  A    between atoms: _429  and  _430
REMARK  175  A    between atoms: _429  and  _432
REMARK  176  A    between atoms: _432  and  _433
REMARK  177  A    between atoms: _436  and  _438
REMARK  178  A    between atoms: _438  and  _439
REMARK  179  A    between atoms: _438  and  _441
REMARK  180  A    between atoms: _444  and  _446
REMARK  181  A    between atoms: _446  and  _447
REMARK  182  A    between atoms: _446  and  _449
REMARK  183  A    between atoms: _449  and  _450
REMARK  184  A    between atoms: _453  and  _455
REMARK  185  A    between atoms: _455  and  _456
REMARK  186  A    between atoms: _455  and  _458
REMARK  187  A    between atoms: _458  and  _459
REMARK  188  A    between atoms: _461  and  _463
REMARK  189  A    between atoms: _463  and  _464
REMARK  190  A    between atoms: _466  and  _468
REMARK  191  A    between atoms: _468  and  _469
REMARK  192  A    between atoms: _468  and  _471
REMARK  193  A    between atoms: _471  and  _472
REMARK  194  A    between atoms: _475  and  _477
REMARK  195  A    between atoms: _477  and  _478
REMARK  196  A    between atoms: _477  and  _480
REMARK  197  A    between atoms: _480  and  _481
REMARK  198  A    between atoms: _484  and  _486
REMARK  199  A    between atoms: _486  and  _487
REMARK  200  A    between atoms: _486  and  _489
REMARK  201  A    between atoms: _489  and  _490
REMARK  202  A    between atoms: _495  and  _497
REMARK  203  A    between atoms: _497  and  _498
REMARK  204  A    between atoms: _497  and  _500
REMARK  205  A    between atoms: _500  and  _501
REMARK  206  A    between atoms: _501  and  _502
REMARK  207  A    between atoms: _502  and  _503
REMARK  208  A    between atoms: _512  and  _514
REMARK  209  A    between atoms: _514  and  _515
REMARK  210  A    between atoms: _514  and  _517
REMARK  211  A    between atoms: _517  and  _518
REMARK  212  A    between atoms: _518  and  _519
REMARK  213  A    between atoms: _519  and  _520
REMARK  214  A    between atoms: _529  and  _531
REMARK  215  A    between atoms: _531  and  _532
REMARK  216  A    between atoms: _531  and  _534
REMARK  217  A    between atoms: _534  and  _535
REMARK  218  A    between atoms: _537  and  _539
REMARK  219  A    between atoms: _539  and  _540
REMARK  220  A    between atoms: _539  and  _542
REMARK  221  A    between atoms: _542  and  _543
REMARK  222  A    between atoms: _543  and  _544
REMARK  223  A    between atoms: _549  and  _551
REMARK  224  A    between atoms: _551  and  _552
REMARK  225  A    between atoms: _551  and  _554
REMARK  226  A    between atoms: _554  and  _555
REMARK  227  A    between atoms: _557  and  _559
REMARK  228  A    between atoms: _559  and  _560
REMARK  229  A    between atoms: _559  and  _562
REMARK  230  A    between atoms: _562  and  _563
REMARK  231  A    between atoms: _565  and  _567
REMARK  232  A    between atoms: _567  and  _568
REMARK  233  A    between atoms: _567  and  _570
REMARK  234  A    between atoms: _570  and  _571
REMARK  235  A    between atoms: _574  and  _576
REMARK  236  A    between atoms: _576  and  _577
REMARK  237  A    between atoms: _576  and  _579
REMARK  238  A    between atoms: _579  and  _580
REMARK  239  A    between atoms: _583  and  _585
REMARK  240  A    between atoms: _585  and  _586
REMARK  241  A    between atoms: _585  and  _588
REMARK  242  A    between atoms: _591  and  _593
REMARK  243  A    between atoms: _593  and  _594
REMARK  244  A    between atoms: _596  and  _598
REMARK  245  A    between atoms: _598  and  _599
REMARK  246  A    between atoms: _602  and  _604
REMARK  247  A    between atoms: _604  and  _605
REMARK  248  A    between atoms: _604  and  _607
REMARK                            x       y       z     vdW  Elec       q    Type
REMARK                         _______ _______ _______ _____ _____    ______ ____
ROOT
ATOM      1  CG  LYS A   1      17.335  11.669  35.115  0.00  0.00    -0.000 C 
ENDROOT
BRANCH   1   2
ATOM      2  CB  LYS A   1      16.992  11.003  36.453  0.00  0.00    +0.025 C 
BRANCH   2   3
ATOM      3  CA  LYS A   1      17.782  11.562  37.643  0.00  0.00    +0.133 C 
BRANCH   3   4
ATOM      4  N   LYS A   1      17.530  12.990  37.809  0.00  0.00    -0.239 NA
ATOM      5  H   LYS A   1      18.313  13.655  37.647  0.00  0.00    +0.142 HD
ENDBRANCH   3   4
BRANCH   3   6
ATOM      6  C   LYS A   1      19.277  11.369  37.387  0.00  0.00    +0.224 C 
ATOM      7  O   LYS A   1      19.984  12.327  37.100  0.00  0.00    -0.287 OA
ENDBRANCH   3   6
ENDBRANCH   2   3
ENDBRANCH   1   2
BRANCH   1   8
ATOM      8  CD  LYS A   1      16.565  11.048  33.949  0.00  0.00    -0.024 C 
BRANCH   8   9
ATOM      9  CE  LYS A   1      16.768  11.847  32.669  0.00  0.00    -0.086 C 
BRANCH   9  10
ATOM     10  NZ  LYS A   1      16.269  13.248  32.818  0.00  0.00    +0.380 N 
ATOM     11  HZ1 LYS A   1      16.786  13.719  33.588  0.00  0.00    -0.089 HD
ATOM     12  HZ2 LYS A   1      15.253  13.231  33.040  0.00  0.00    -0.089 HD
ATOM     13  HZ3 LYS A   1      16.422  13.766  31.929  0.00  0.00    -0.089 HD
ENDBRANCH   9  10
ENDBRANCH   8   9
ENDBRANCH   1   8
TORSDOF 7
REMARK  Name = ../refined-set-2016/2qmg/2qmg_pocket.pdb
REMARK  248 active torsions:
REMARK  status: ('A' for Active; 'I' for Inactive)
REMARK    1  A    between atoms: _1  and  _3
REMARK    2  A    between atoms: _3  and  _4
REMARK    3  A    between atoms: _3  and  _6
REMARK    4  A    between atoms: _6  and  _7
REMARK    5  A    between atoms: _7  and  _8
REMARK    6  A    between atoms: _8  and  _9
REMARK    7  A    between atoms: _9  and  _10
REMARK    8  A    between atoms: _14  and  _16
REMARK    9  A    between atoms: _16  and  _17
REMARK   10  A    between atoms: _16  and  _19
REMARK   11  A    between atoms: _19  and  _20
REMARK   12  A    between atoms: _22  and  _24
REMARK   13  A    between atoms: _24  and  _25
REMARK   14  A    between atoms: _27  and  _29
REMARK   15  A    between atoms: _29  and  _30
REMARK   16  A    between atoms: _29  and  _32
REMARK   17  A    between atoms: _32  and  _33
REMARK   18  A    between atoms: _33  and  _34
REMARK   19  A    between atoms: _39  and  _41
REMARK   20  A    between atoms: _41  and  _42
REMARK   21  A    between atoms: _44  and  _46
REMARK   22  A    between atoms: _46  and  _47
REMARK   23  A    between atoms: _46  and  _49
REMARK   24  A    between atoms: _49  and  _50
REMARK   25  A    between atoms: _55  and  _56
REMARK   26  A    between atoms: _58  and  _60
REMARK   27  A    between atoms: _60  and  _61
REMARK   28  A    between atoms: _60  and  _63
REMARK   29  A    between atoms: _63  and  _64
REMARK   30  A    between atoms: _67  and  _69
REMARK   31  A    between atoms: _69  and  _70
REMARK   32  A    between atoms: _69  and  _72
REMARK   33  A    between atoms: _75  and  _77
REMARK   34  A    between atoms: _77  and  _78
REMARK   35  A    between atoms: _77  and  _80
REMARK   36  A    between atoms: _80  and  _81
REMARK   37  A    between atoms: _84  and  _86
REMARK   38  A    between atoms: _86  and  _87
REMARK   39  A    between atoms: _86  and  _89
REMARK   40  A    between atoms: _89  and  _90
REMARK   41  A    between atoms: _93  and  _95
REMARK   42  A    between atoms: _95  and  _96
REMARK   43  A    between atoms: _98  and  _100
REMARK   44  A    between atoms: _100  and  _101
REMARK   45  A    between atoms: _100  and  _103
REMARK   46  A    between atoms: _103  and  _104
REMARK   47  A    between atoms: _106  and  _108
REMARK   48  A    between atoms: _108  and  _109
REMARK   49  A    between atoms: _108  and  _111
REMARK   50  A    between atoms: _111  and  _112
REMARK   51  A    between atoms: _114  and  _116
REMARK   52  A    between atoms: _116  and  _117
REMARK   53  A    between atoms: _116  and  _119
REMARK   54  A    between atoms: _119  and  _120
REMARK   55  A    between atoms: _125  and  _127
REMARK   56  A    between atoms: _127  and  _128
REMARK   57  A    between atoms: _127  and  _130
REMARK   58  A    between atoms: _130  and  _131
REMARK   59  A    between atoms: _136  and  _137
REMARK   60  A    between atoms: _139  and  _141
REMARK   61  A    between atoms: _141  and  _142
REMARK   62  A    between atoms: _141  and  _144
REMARK   63  A    between atoms: _148  and  _149
REMARK   64  A    between atoms: _154  and  _156
REMARK   65  A    between atoms: _156  and  _157
REMARK   66  A    between atoms: _156  and  _159
REMARK   67  A    between atoms: _159  and  _160
REMARK   68  A    between atoms: _165  and  _166
REMARK   69  A    between atoms: _168  and  _170
REMARK   70  A    between atoms: _170  and  _171
REMARK   71  A    between atoms: _170  and  _173
REMARK   72  A    between atoms: _173  and  _174
REMARK   73  A    between atoms: _177  and  _179
REMARK   74  A    between atoms: _179  and  _180
REMARK   75  A    between atoms: _179  and  _182
REMARK   76  A    between atoms: _182  and  _183
REMARK   77  A    between atoms: _183  and  _184
REMARK   78  A    between atoms: _189  and  _191
REMARK   79  A    between atoms: _191  and  _192
REMARK   80  A    between atoms: _194  and  _196
REMARK   81  A    between atoms: _196  and  _197
REMARK   82  A    between atoms: _196  and  _199
REMARK   83  A    between atoms: _199  and  _200
REMARK   84  A    between atoms: _200  and  _201
REMARK   85  A    between atoms: _201  and  _202
REMARK   86  A    between atoms: _202  and  _203
REMARK   87  A    between atoms: _207  and  _209
REMARK   88  A    between atoms: _209  and  _210
REMARK   89  A    between atoms: _209  and  _212
REMARK   90  A    between atoms: _212  and  _213
REMARK   91  A    between atoms: _223  and  _225
REMARK   92  A    between atoms: _225  and  _226
REMARK   93  A    between atoms: _225  and  _228
REMARK   94  A    between atoms: _228  and  _229
REMARK   95  A    between atoms: _232  and  _234
REMARK   96  A    between atoms: _234  and  _235
REMARK   97  A    between atoms: _234  and  _237
REMARK   98  A    between atoms: _237  and  _238
REMARK   99  A    between atoms: _238  and  _239
REMARK  100  A    between atoms: _239  and  _240
REMARK  101  A    between atoms: _240  and  _241
REMARK  102  A    between atoms: _245  and  _247
REMARK  103  A    between atoms: _247  and  _248
REMARK  104  A    between atoms: _247  and  _250
REMARK  105  A    between atoms: _250  and  _251
REMARK  106  A    between atoms: _257  and  _259
REMARK  107  A    between atoms: _259  and  _260
REMARK  108  A    between atoms: _259  and  _262
REMARK  109  A    between atoms: _262  and  _263
REMARK  110  A    between atoms: _269  and  _271
REMARK  111  A    between atoms: _271  and  _272
REMARK  112  A    between atoms: _271  and  _274
REMARK  113  A    between atoms: _274  and  _275
REMARK  114  A    between atoms: _278  and  _280
REMARK  115  A    between atoms: _280  and  _281
REMARK  116  A    between atoms: _280  and  _283
REMARK  117  A    between atoms: _283  and  _284
REMARK  118  A    between atoms: _286  and  _288
REMARK  119  A    between atoms: _288  and  _289
REMARK  120  A    between atoms: _288  and  _291
REMARK  121  A    between atoms: _291  and  _292
REMARK  122  A    between atoms: _302  and  _304
REMARK  123  A    between atoms: _304  and  _305
REMARK  124  A    between atoms: _307  and  _309
REMARK  125  A    between atoms: _309  and  _310
REMARK  126  A    between atoms: _309  and  _312
REMARK  127  A    between atoms: _312  and  _313
REMARK  128  A    between atoms: _316  and  _318
REMARK  129  A    between atoms: _318  and  _319
REMARK  130  A    between atoms: _318  and  _321
REMARK  131  A    between atoms: _321  and  _322
REMARK  132  A    between atoms: _325  and  _327
REMARK  133  A    between atoms: _327  and  _328
REMARK  134  A    between atoms: _330  and  _332
REMARK  135  A    between atoms: _332  and  _333
REMARK  136  A    between atoms: _332  and  _335
REMARK  137  A    between atoms: _335  and  _336
REMARK  138  A    between atoms: _339  and  _341
REMARK  139  A    between atoms: _341  and  _342
REMARK  140  A    between atoms: _345  and  _347
REMARK  141  A    between atoms: _347  and  _348
REMARK  142  A    between atoms: _347  and  _350
REMARK  143  A    between atoms: _350  and  _351
REMARK  144  A    between atoms: _354  and  _356
REMARK  145  A    between atoms: _356  and  _357
REMARK  146  A    between atoms: _360  and  _362
REMARK  147  A    between atoms: _362  and  _363
REMARK  148  A    between atoms: _362  and  _365
REMARK  149  A    between atoms: _365  and  _366
REMARK  150  A    between atoms: _366  and  _367
REMARK  151  A    between atoms: _367  and  _368
REMARK  152  A    between atoms: _377  and  _379
REMARK  153  A    between atoms: _379  and  _380
REMARK  154  A    between atoms: _379  and  _382
REMARK  155  A    between atoms: _382  and  _383
REMARK  156  A    between atoms: _386  and  _388
REMARK  157  A    between atoms: _388  and  _389
REMARK  158  A    between atoms: _388  and  _391
REMARK  159  A    between atoms: _391  and  _392
REMARK  160  A    between atoms: _397  and  _398
REMARK  161  A    between atoms: _400  and  _402
REMARK  162  A    between atoms: _402  and  _403
REMARK  163  A    between atoms: _402  and  _405
REMARK  164  A    between atoms: _405  and  _406
REMARK  165  A    between atoms: _411  and  _412
REMARK  166  A    between atoms: _414  and  _416
REMARK  167  A    between atoms: _416  and  _417
REMARK  168  A    between atoms: _416  and  _419
REMARK  169  A    between atoms: _419  and  _420
REMARK  170  A    between atoms: _420  and  _421
REMARK  171  A    between atoms: _421  and  _422
REMARK  172  A    between atoms: _422  and  _423
REMARK  173  A    between atoms: _427  and  _429
REMARK  174  A    between atoms: _429  and  _430
REMARK  175  A    between atoms: _429  and  _432
REMARK  176  A    between atoms: _432  and  _433
REMARK  177  A    between atoms: _436  and  _438
REMARK  178  A    between atoms: _438  and  _439
REMARK  179  A    between atoms: _438  and  _441
REMARK  180  A    between atoms: _444  and  _446
REMARK  181  A    between atoms: _446  and  _447
REMARK  182  A    between atoms: _446  and  _449
REMARK  183  A    between atoms: _449  and  _450
REMARK  184  A    between atoms: _453  and  _455
REMARK  185  A    between atoms: _455  and  _456
REMARK  186  A    between atoms: _455  and  _458
REMARK  187  A    between atoms: _458  and  _459
REMARK  188  A    between atoms: _461  and  _463
REMARK  189  A    between atoms: _463  and  _464
REMARK  190  A    between atoms: _466  and  _468
REMARK  191  A    between atoms: _468  and  _469
REMARK  192  A    between atoms: _468  and  _471
REMARK  193  A    between atoms: _471  and  _472
REMARK  194  A    between atoms: _475  and  _477
REMARK  195  A    between atoms: _477  and  _478
REMARK  196  A    between atoms: _477  and  _480
REMARK  197  A    between atoms: _480  and  _481
REMARK  198  A    between atoms: _484  and  _486
REMARK  199  A    between atoms: _486  and  _487
REMARK  200  A    between atoms: _486  and  _489
REMARK  201  A    between atoms: _489  and  _490
REMARK  202  A    between atoms: _495  and  _497
REMARK  203  A    between atoms: _497  and  _498
REMARK  204  A    between atoms: _497  and  _500
REMARK  205  A    between atoms: _500  and  _501
REMARK  206  A    between atoms: _501  and  _502
REMARK  207  A    between atoms: _502  and  _503
REMARK  208  A    between atoms: _512  and  _514
REMARK  209  A    between atoms: _514  and  _515
REMARK  210  A    between atoms: _514  and  _517
REMARK  211  A    between atoms: _517  and  _518
REMARK  212  A    between atoms: _518  and  _519
REMARK  213  A    between atoms: _519  and  _520
REMARK  214  A    between atoms: _529  and  _531
REMARK  215  A    between atoms: _531  and  _532
REMARK  216  A    between atoms: _531  and  _534
REMARK  217  A    between atoms: _534  and  _535
REMARK  218  A    between atoms: _537  and  _539
REMARK  219  A    between atoms: _539  and  _540
REMARK  220  A    between atoms: _539  and  _542
REMARK  221  A    between atoms: _542  and  _543
REMARK  222  A    between atoms: _543  and  _544
REMARK  223  A    between atoms: _549  and  _551
REMARK  224  A    between atoms: _551  and  _552
REMARK  225  A    between atoms: _551  and  _554
REMARK  226  A    between atoms: _554  and  _555
REMARK  227  A    between atoms: _557  and  _559
REMARK  228  A    between atoms: _559  and  _560
REMARK  229  A    between atoms: _559  and  _562
REMARK  230  A    between atoms: _562  and  _563
REMARK  231  A    between atoms: _565  and  _567
REMARK  232  A    between atoms: _567  and  _568
REMARK  233  A    between atoms: _567  and  _570
REMARK  234  A    between atoms: _570  and  _571
REMARK  235  A    between atoms: _574  and  _576
REMARK  236  A    between atoms: _576  and  _577
REMARK  237  A    between atoms: _576  and  _579
REMARK  238  A    between atoms: _579  and  _580
REMARK  239  A    between atoms: _583  and  _585
REMARK  240  A    between atoms: _585  and  _586
REMARK  241  A    between atoms: _585  and  _588
REMARK  242  A    between atoms: _591  and  _593
REMARK  243  A    between atoms: _593  and  _594
REMARK  244  A    between atoms: _596  and  _598
REMARK  245  A    between atoms: _598  and  _599
REMARK  246  A    between atoms: _602  and  _604
REMARK  247  A    between atoms: _604  and  _605
REMARK  248  A    between atoms: _604  and  _607
REMARK                            x       y       z     vdW  Elec       q    Type
REMARK                         _______ _______ _______ _____ _____    ______ ____
ROOT
ATOM      1  C   SER A   4      27.387   6.179  25.544  0.00  0.00    +0.243 C 
ATOM      2  N   GLY A   5      26.207   6.777  25.390  0.00  0.00    -0.295 N 
ATOM      3  H   GLY A   5      25.444   6.597  26.073  0.00  0.00    +0.150 HD
ATOM      4  O   SER A   4      28.334   6.375  24.785  0.00  0.00    -0.273 OA
ENDROOT
BRANCH   2   5
ATOM      5  CA  GLY A   5      25.979   7.680  24.272  0.00  0.00    +0.176 C 
BRANCH   5   6
ATOM      6  C   GLY A   5      26.376   9.127  24.528  0.00  0.00    +0.243 C 
ATOM      7  N   THR A   6      26.977   9.376  25.687  0.00  0.00    -0.295 N 
ATOM      8  H   THR A   6      27.138   8.588  26.346  0.00  0.00    +0.150 HD
ATOM      9  O   GLY A   5      26.136  10.001  23.693  0.00  0.00    -0.273 OA
BRANCH   7  10
ATOM     10  CA  THR A   6      27.420  10.714  26.070  0.00  0.00    +0.176 C 
BRANCH  10  11
ATOM     11  C   THR A   6      28.879  10.607  26.517  0.00  0.00    +0.243 C 
ATOM     12  O   THR A   6      29.236   9.715  27.280  0.00  0.00    -0.273 OA
ATOM     13  N   THR A   7      29.722  11.509  26.030  0.00  0.00    -0.295 N 
ATOM     14  H   THR A   7      29.368  12.255  25.398  0.00  0.00    +0.150 HD
BRANCH  13  15
ATOM     15  CA  THR A   7      31.142  11.466  26.372  0.00  0.00    +0.176 C 
BRANCH  15  16
ATOM     16  C   THR A   7      31.469  11.802  27.826  0.00  0.00    +0.243 C 
ATOM     17  O   THR A   7      32.075  11.008  28.543  0.00  0.00    -0.273 OA
ATOM     18  N   ASN A   8      31.050  12.982  28.266  0.00  0.00    -0.298 N 
ATOM     19  H   ASN A   8      30.481  13.588  27.641  0.00  0.00    +0.150 HD
BRANCH  18  20
ATOM     20  CA  ASN A   8      31.373  13.444  29.610  0.00  0.00    +0.146 C 
BRANCH  20  21
ATOM     21  C   ASN A   8      30.577  12.893  30.763  0.00  0.00    +0.227 C 
ATOM     22  O   ASN A   8      29.542  12.245  30.590  0.00  0.00    -0.286 OA
ENDBRANCH  20  21
BRANCH  20  23
ATOM     23  CB  ASN A   8      31.238  14.970  29.683  0.00  0.00    +0.112 C 
BRANCH  23  24
ATOM     24  CG  ASN A   8      32.212  15.694  28.781  0.00  0.00    +0.222 C 
ATOM     25  ND2 ASN A   8      32.060  17.013  28.690  0.00  0.00    -0.329 N 
ATOM     26 HD21 ASN A   8      31.302  17.487  29.222  0.00  0.00    +0.145 HD
ATOM     27 HD22 ASN A   8      32.699  17.570  28.087  0.00  0.00    +0.145 HD
ATOM     28  OD1 ASN A   8      33.089  15.085  28.175  0.00  0.00    -0.275 OA
ENDBRANCH  23  24
ENDBRANCH  20  23
ENDBRANCH  18  20
ENDBRANCH  15  16
BRANCH  15  29
ATOM     29  CB  THR A   7      31.951  12.428  25.466  0.00  0.00    +0.137 C 
ATOM     30  CG2 THR A   7      33.405  12.525  25.934  0.00  0.00    +0.034 C 
BRANCH  29  31
ATOM     31  OG1 THR A   7      31.918  11.951  24.115  0.00  0.00    -0.382 OA
ATOM     32  HG1 THR A   7      30.979  11.913  23.803  0.00  0.00    +0.210 HD
ENDBRANCH  29  31
ENDBRANCH  15  29
ENDBRANCH  13  15
ENDBRANCH  10  11
BRANCH  10  33
ATOM     33  CB  THR A   6      26.557  11.272  27.222  0.00  0.00    +0.137 C 
ATOM     34  CG2 THR A   6      27.141  12.570  27.746  0.00  0.00    +0.034 C 
BRANCH  33  35
ATOM     35  OG1 THR A   6      25.224  11.512  26.745  0.00  0.00    -0.382 OA
ATOM     36  HG1 THR A   6      24.670  11.870  27.483  0.00  0.00    +0.210 HD
ENDBRANCH  33  35
ENDBRANCH  10  33
ENDBRANCH   7  10
ENDBRANCH   5   6
ENDBRANCH   2   5
BRANCH   1  37
ATOM     37  CA  SER A   4      27.530   5.236  26.739  0.00  0.00    +0.178 C 
BRANCH  37  40
ATOM     38  C   ASP A   3      26.237   6.444  28.400  0.00  0.00    +0.241 C 
ATOM     39  O   ASP A   3      27.036   7.375  28.396  0.00  0.00    -0.273 OA
ATOM     40  N   SER A   4      26.384   5.370  27.629  0.00  0.00    -0.295 N 
ATOM     41  H   SER A   4      25.670   4.614  27.662  0.00  0.00    +0.150 HD
BRANCH  38  42
ATOM     42  CA  ASP A   3      24.991   6.498  29.280  0.00  0.00    +0.160 C 
BRANCH  42  45
ATOM     43  C   VAL A   2      24.317   5.360  31.323  0.00  0.00    +0.241 C 
ATOM     44  O   VAL A   2      23.452   4.703  30.739  0.00  0.00    -0.273 OA
ATOM     45  N   ASP A   3      25.159   6.172  30.694  0.00  0.00    -0.297 N 
ATOM     46  H   ASP A   3      25.956   6.585  31.220  0.00  0.00    +0.150 HD
BRANCH  43  47
ATOM     47  CA  VAL A   2      24.499   5.249  32.832  0.00  0.00    +0.148 C 
BRANCH  47  50
ATOM     48  C   ILE A   1      23.134   7.041  33.802  0.00  0.00    +0.238 C 
ATOM     49  O   ILE A   1      24.098   7.805  33.870  0.00  0.00    -0.274 OA
ATOM     50  N   VAL A   2      23.233   5.787  33.353  0.00  0.00    -0.297 N 
ATOM     51  H   VAL A   2      22.393   5.175  33.372  0.00  0.00    +0.150 HD
BRANCH  48  52
ATOM     52  CA  ILE A   1      21.745   7.498  34.256  0.00  0.00    +0.145 C 
BRANCH  52  53
ATOM     53  CB  ILE A   1      20.942   7.891  32.991  0.00  0.00    +0.025 C 
ATOM     54  CG2 ILE A   1      19.575   8.433  33.386  0.00  0.00    +0.002 C 
BRANCH  53  55
ATOM     55  CG1 ILE A   1      21.703   8.970  32.206  0.00  0.00    +0.002 C 
ATOM     56  CD1 ILE A   1      21.024   9.391  30.876  0.00  0.00    +0.000 C 
ENDBRANCH  53  55
ENDBRANCH  52  53
BRANCH  52  57
ATOM     57  N   ILE A   1      21.778   8.616  35.200  0.00  0.00    -0.238 NA
ATOM     58  H   ILE A   1      22.356   9.453  34.985  0.00  0.00    +0.142 HD
ENDBRANCH  52  57
ENDBRANCH  48  52
ENDBRANCH  47  50
BRANCH  47  59
ATOM     59  CB  VAL A   2      24.709   3.795  33.249  0.00  0.00    +0.027 C 
ATOM     60  CG2 VAL A   2      24.649   3.691  34.780  0.00  0.00    +0.002 C 
ATOM     61  CG1 VAL A   2      26.056   3.297  32.726  0.00  0.00    +0.002 C 
ENDBRANCH  47  59
ENDBRANCH  43  47
ENDBRANCH  42  45
BRANCH  42  62
ATOM     62  CB  ASP A   3      24.390   7.913  29.246  0.00  0.00    +0.143 C 
BRANCH  62  63
ATOM     63  CG  ASP A   3      24.003   8.374  27.870  0.00  0.00    +0.367 C 
ATOM     64  OD2 ASP A   3      23.548   9.538  27.780  0.00  0.00    -0.246 OA
ATOM     65  OD1 ASP A   3      24.131   7.602  26.890  0.00  0.00    -0.246 OA
ENDBRANCH  62  63
ENDBRANCH  42  62
ENDBRANCH  38  42
ENDBRANCH  37  40
BRANCH  37  66
ATOM     66  CB  SER A   4      27.647   3.789  26.234  0.00  0.00    +0.166 C 
BRANCH  66  67
ATOM     67  OG  SER A   4      26.498   3.424  25.474  0.00  0.00    -0.380 OA
ATOM     68  H   SER A   4      26.413   4.029  24.695  0.00  0.00    +0.211 HD
ENDBRANCH  66  67
ENDBRANCH  37  66
ENDBRANCH   1  37
TORSDOF 29
REMARK  Name = ../refined-set-2016/2qmg/2qmg_pocket.pdb
REMARK  248 active torsions:
REMARK  status: ('A' for Active; 'I' for Inactive)
REMARK    1  A    between atoms: _1  and  _3
REMARK    2  A    between atoms: _3  and  _4
REMARK    3  A    between atoms: _3  and  _6
REMARK    4  A    between atoms: _6  and  _7
REMARK    5  A    between atoms: _7  and  _8
REMARK    6  A    between atoms: _8  and  _9
REMARK    7  A    between atoms: _9  and  _10
REMARK    8  A    between atoms: _14  and  _16
REMARK    9  A    between atoms: _16  and  _17
REMARK   10  A    between atoms: _16  and  _19
REMARK   11  A    between atoms: _19  and  _20
REMARK   12  A    between atoms: _22  and  _24
REMARK   13  A    between atoms: _24  and  _25
REMARK   14  A    between atoms: _27  and  _29
REMARK   15  A    between atoms: _29  and  _30
REMARK   16  A    between atoms: _29  and  _32
REMARK   17  A    between atoms: _32  and  _33
REMARK   18  A    between atoms: _33  and  _34
REMARK   19  A    between atoms: _39  and  _41
REMARK   20  A    between atoms: _41  and  _42
REMARK   21  A    between atoms: _44  and  _46
REMARK   22  A    between atoms: _46  and  _47
REMARK   23  A    between atoms: _46  and  _49
REMARK   24  A    between atoms: _49  and  _50
REMARK   25  A    between atoms: _55  and  _56
REMARK   26  A    between atoms: _58  and  _60
REMARK   27  A    between atoms: _60  and  _61
REMARK   28  A    between atoms: _60  and  _63
REMARK   29  A    between atoms: _63  and  _64
REMARK   30  A    between atoms: _67  and  _69
REMARK   31  A    between atoms: _69  and  _70
REMARK   32  A    between atoms: _69  and  _72
REMARK   33  A    between atoms: _75  and  _77
REMARK   34  A    between atoms: _77  and  _78
REMARK   35  A    between atoms: _77  and  _80
REMARK   36  A    between atoms: _80  and  _81
REMARK   37  A    between atoms: _84  and  _86
REMARK   38  A    between atoms: _86  and  _87
REMARK   39  A    between atoms: _86  and  _89
REMARK   40  A    between atoms: _89  and  _90
REMARK   41  A    between atoms: _93  and  _95
REMARK   42  A    between atoms: _95  and  _96
REMARK   43  A    between atoms: _98  and  _100
REMARK   44  A    between atoms: _100  and  _101
REMARK   45  A    between atoms: _100  and  _103
REMARK   46  A    between atoms: _103  and  _104
REMARK   47  A    between atoms: _106  and  _108
REMARK   48  A    between atoms: _108  and  _109
REMARK   49  A    between atoms: _108  and  _111
REMARK   50  A    between atoms: _111  and  _112
REMARK   51  A    between atoms: _114  and  _116
REMARK   52  A    between atoms: _116  and  _117
REMARK   53  A    between atoms: _116  and  _119
REMARK   54  A    between atoms: _119  and  _120
REMARK   55  A    between atoms: _125  and  _127
REMARK   56  A    between atoms: _127  and  _128
REMARK   57  A    between atoms: _127  and  _130
REMARK   58  A    between atoms: _130  and  _131
REMARK   59  A    between atoms: _136  and  _137
REMARK   60  A    between atoms: _139  and  _141
REMARK   61  A    between atoms: _141  and  _142
REMARK   62  A    between atoms: _141  and  _144
REMARK   63  A    between atoms: _148  and  _149
REMARK   64  A    between atoms: _154  and  _156
REMARK   65  A    between atoms: _156  and  _157
REMARK   66  A    between atoms: _156  and  _159
REMARK   67  A    between atoms: _159  and  _160
REMARK   68  A    between atoms: _165  and  _166
REMARK   69  A    between atoms: _168  and  _170
REMARK   70  A    between atoms: _170  and  _171
REMARK   71  A    between atoms: _170  and  _173
REMARK   72  A    between atoms: _173  and  _174
REMARK   73  A    between atoms: _177  and  _179
REMARK   74  A    between atoms: _179  and  _180
REMARK   75  A    between atoms: _179  and  _182
REMARK   76  A    between atoms: _182  and  _183
REMARK   77  A    between atoms: _183  and  _184
REMARK   78  A    between atoms: _189  and  _191
REMARK   79  A    between atoms: _191  and  _192
REMARK   80  A    between atoms: _194  and  _196
REMARK   81  A    between atoms: _196  and  _197
REMARK   82  A    between atoms: _196  and  _199
REMARK   83  A    between atoms: _199  and  _200
REMARK   84  A    between atoms: _200  and  _201
REMARK   85  A    between atoms: _201  and  _202
REMARK   86  A    between atoms: _202  and  _203
REMARK   87  A    between atoms: _207  and  _209
REMARK   88  A    between atoms: _209  and  _210
REMARK   89  A    between atoms: _209  and  _212
REMARK   90  A    between atoms: _212  and  _213
REMARK   91  A    between atoms: _223  and  _225
REMARK   92  A    between atoms: _225  and  _226
REMARK   93  A    between atoms: _225  and  _228
REMARK   94  A    between atoms: _228  and  _229
REMARK   95  A    between atoms: _232  and  _234
REMARK   96  A    between atoms: _234  and  _235
REMARK   97  A    between atoms: _234  and  _237
REMARK   98  A    between atoms: _237  and  _238
REMARK   99  A    between atoms: _238  and  _239
REMARK  100  A    between atoms: _239  and  _240
REMARK  101  A    between atoms: _240  and  _241
REMARK  102  A    between atoms: _245  and  _247
REMARK  103  A    between atoms: _247  and  _248
REMARK  104  A    between atoms: _247  and  _250
REMARK  105  A    between atoms: _250  and  _251
REMARK  106  A    between atoms: _257  and  _259
REMARK  107  A    between atoms: _259  and  _260
REMARK  108  A    between atoms: _259  and  _262
REMARK  109  A    between atoms: _262  and  _263
REMARK  110  A    between atoms: _269  and  _271
REMARK  111  A    between atoms: _271  and  _272
REMARK  112  A    between atoms: _271  and  _274
REMARK  113  A    between atoms: _274  and  _275
REMARK  114  A    between atoms: _278  and  _280
REMARK  115  A    between atoms: _280  and  _281
REMARK  116  A    between atoms: _280  and  _283
REMARK  117  A    between atoms: _283  and  _284
REMARK  118  A    between atoms: _286  and  _288
REMARK  119  A    between atoms: _288  and  _289
REMARK  120  A    between atoms: _288  and  _291
REMARK  121  A    between atoms: _291  and  _292
REMARK  122  A    between atoms: _302  and  _304
REMARK  123  A    between atoms: _304  and  _305
REMARK  124  A    between atoms: _307  and  _309
REMARK  125  A    between atoms: _309  and  _310
REMARK  126  A    between atoms: _309  and  _312
REMARK  127  A    between atoms: _312  and  _313
REMARK  128  A    between atoms: _316  and  _318
REMARK  129  A    between atoms: _318  and  _319
REMARK  130  A    between atoms: _318  and  _321
REMARK  131  A    between atoms: _321  and  _322
REMARK  132  A    between atoms: _325  and  _327
REMARK  133  A    between atoms: _327  and  _328
REMARK  134  A    between atoms: _330  and  _332
REMARK  135  A    between atoms: _332  and  _333
REMARK  136  A    between atoms: _332  and  _335
REMARK  137  A    between atoms: _335  and  _336
REMARK  138  A    between atoms: _339  and  _341
REMARK  139  A    between atoms: _341  and  _342
REMARK  140  A    between atoms: _345  and  _347
REMARK  141  A    between atoms: _347  and  _348
REMARK  142  A    between atoms: _347  and  _350
REMARK  143  A    between atoms: _350  and  _351
REMARK  144  A    between atoms: _354  and  _356
REMARK  145  A    between atoms: _356  and  _357
REMARK  146  A    between atoms: _360  and  _362
REMARK  147  A    between atoms: _362  and  _363
REMARK  148  A    between atoms: _362  and  _365
REMARK  149  A    between atoms: _365  and  _366
REMARK  150  A    between atoms: _366  and  _367
REMARK  151  A    between atoms: _367  and  _368
REMARK  152  A    between atoms: _377  and  _379
REMARK  153  A    between atoms: _379  and  _380
REMARK  154  A    between atoms: _379  and  _382
REMARK  155  A    between atoms: _382  and  _383
REMARK  156  A    between atoms: _386  and  _388
REMARK  157  A    between atoms: _388  and  _389
REMARK  158  A    between atoms: _388  and  _391
REMARK  159  A    between atoms: _391  and  _392
REMARK  160  A    between atoms: _397  and  _398
REMARK  161  A    between atoms: _400  and  _402
REMARK  162  A    between atoms: _402  and  _403
REMARK  163  A    between atoms: _402  and  _405
REMARK  164  A    between atoms: _405  and  _406
REMARK  165  A    between atoms: _411  and  _412
REMARK  166  A    between atoms: _414  and  _416
REMARK  167  A    between atoms: _416  and  _417
REMARK  168  A    between atoms: _416  and  _419
REMARK  169  A    between atoms: _419  and  _420
REMARK  170  A    between atoms: _420  and  _421
REMARK  171  A    between atoms: _421  and  _422
REMARK  172  A    between atoms: _422  and  _423
REMARK  173  A    between atoms: _427  and  _429
REMARK  174  A    between atoms: _429  and  _430
REMARK  175  A    between atoms: _429  and  _432
REMARK  176  A    between atoms: _432  and  _433
REMARK  177  A    between atoms: _436  and  _438
REMARK  178  A    between atoms: _438  and  _439
REMARK  179  A    between atoms: _438  and  _441
REMARK  180  A    between atoms: _444  and  _446
REMARK  181  A    between atoms: _446  and  _447
REMARK  182  A    between atoms: _446  and  _449
REMARK  183  A    between atoms: _449  and  _450
REMARK  184  A    between atoms: _453  and  _455
REMARK  185  A    between atoms: _455  and  _456
REMARK  186  A    between atoms: _455  and  _458
REMARK  187  A    between atoms: _458  and  _459
REMARK  188  A    between atoms: _461  and  _463
REMARK  189  A    between atoms: _463  and  _464
REMARK  190  A    between atoms: _466  and  _468
REMARK  191  A    between atoms: _468  and  _469
REMARK  192  A    between atoms: _468  and  _471
REMARK  193  A    between atoms: _471  and  _472
REMARK  194  A    between atoms: _475  and  _477
REMARK  195  A    between atoms: _477  and  _478
REMARK  196  A    between atoms: _477  and  _480
REMARK  197  A    between atoms: _480  and  _481
REMARK  198  A    between atoms: _484  and  _486
REMARK  199  A    between atoms: _486  and  _487
REMARK  200  A    between atoms: _486  and  _489
REMARK  201  A    between atoms: _489  and  _490
REMARK  202  A    between atoms: _495  and  _497
REMARK  203  A    between atoms: _497  and  _498
REMARK  204  A    between atoms: _497  and  _500
REMARK  205  A    between atoms: _500  and  _501
REMARK  206  A    between atoms: _501  and  _502
REMARK  207  A    between atoms: _502  and  _503
REMARK  208  A    between atoms: _512  and  _514
REMARK  209  A    between atoms: _514  and  _515
REMARK  210  A    between atoms: _514  and  _517
REMARK  211  A    between atoms: _517  and  _518
REMARK  212  A    between atoms: _518  and  _519
REMARK  213  A    between atoms: _519  and  _520
REMARK  214  A    between atoms: _529  and  _531
REMARK  215  A    between atoms: _531  and  _532
REMARK  216  A    between atoms: _531  and  _534
REMARK  217  A    between atoms: _534  and  _535
REMARK  218  A    between atoms: _537  and  _539
REMARK  219  A    between atoms: _539  and  _540
REMARK  220  A    between atoms: _539  and  _542
REMARK  221  A    between atoms: _542  and  _543
REMARK  222  A    between atoms: _543  and  _544
REMARK  223  A    between atoms: _549  and  _551
REMARK  224  A    between atoms: _551  and  _552
REMARK  225  A    between atoms: _551  and  _554
REMARK  226  A    between atoms: _554  and  _555
REMARK  227  A    between atoms: _557  and  _559
REMARK  228  A    between atoms: _559  and  _560
REMARK  229  A    between atoms: _559  and  _562
REMARK  230  A    between atoms: _562  and  _563
REMARK  231  A    between atoms: _565  and  _567
REMARK  232  A    between atoms: _567  and  _568
REMARK  233  A    between atoms: _567  and  _570
REMARK  234  A    between atoms: _570  and  _571
REMARK  235  A    between atoms: _574  and  _576
REMARK  236  A    between atoms: _576  and  _577
REMARK  237  A    between atoms: _576  and  _579
REMARK  238  A    between atoms: _579  and  _580
REMARK  239  A    between atoms: _583  and  _585
REMARK  240  A    between atoms: _585  and  _586
REMARK  241  A    between atoms: _585  and  _588
REMARK  242  A    between atoms: _591  and  _593
REMARK  243  A    between atoms: _593  and  _594
REMARK  244  A    between atoms: _596  and  _598
REMARK  245  A    between atoms: _598  and  _599
REMARK  246  A    between atoms: _602  and  _604
REMARK  247  A    between atoms: _604  and  _605
REMARK  248  A    between atoms: _604  and  _607
REMARK                            x       y       z     vdW  Elec       q    Type
REMARK                         _______ _______ _______ _____ _____    ______ ____
ROOT
ATOM      1  NE  ARG A   1      25.853  17.014  29.573  0.00  0.00    -0.265 N 
ATOM      2  HE  ARG A   1      26.535  17.794  29.660  0.00  0.00    +0.259 HD
ATOM      3  CZ  ARG A   1      24.566  17.328  29.470  0.00  0.00    +0.342 C 
ATOM      4  NH2 ARG A   1      24.195  18.608  29.490  0.00  0.00    -0.292 N 
ATOM      5 HH21 ARG A   1      24.912  19.356  29.586  0.00  0.00    +0.255 HD
ATOM      6 HH22 ARG A   1      23.189  18.859  29.410  0.00  0.00    +0.255 HD
ATOM      7  NH1 ARG A   1      23.653  16.372  29.343  0.00  0.00    -0.292 N 
ATOM      8 HH11 ARG A   1      23.944  15.374  29.324  0.00  0.00    +0.255 HD
ATOM      9 HH12 ARG A   1      22.647  16.621  29.263  0.00  0.00    +0.255 HD
ENDROOT
BRANCH   1  10
ATOM     10  CD  ARG A   1      26.376  15.655  29.573  0.00  0.00    +0.174 C 
BRANCH  10  11
ATOM     11  CG  ARG A   1      27.299  15.428  30.763  0.00  0.00    +0.045 C 
BRANCH  11  12
ATOM     12  CB  ARG A   1      26.593  15.535  32.125  0.00  0.00    +0.029 C 
BRANCH  12  13
ATOM     13  CA  ARG A   1      27.588  15.419  33.295  0.00  0.00    +0.133 C 
BRANCH  13  14
ATOM     14  N   ARG A   1      28.333  14.167  33.199  0.00  0.00    -0.239 NA
ATOM     15  H   ARG A   1      27.828  13.268  33.062  0.00  0.00    +0.142 HD
ENDBRANCH  13  14
BRANCH  13  16
ATOM     16  C   ARG A   1      26.901  15.461  34.649  0.00  0.00    +0.224 C 
ATOM     17  O   ARG A   1      26.302  14.474  35.092  0.00  0.00    -0.287 OA
ENDBRANCH  13  16
ENDBRANCH  12  13
ENDBRANCH  11  12
ENDBRANCH  10  11
ENDBRANCH   1  10
TORSDOF 6
REMARK  Name = ../refined-set-2016/2qmg/2qmg_pocket.pdb
REMARK  248 active torsions:
REMARK  status: ('A' for Active; 'I' for Inactive)
REMARK    1  A    between atoms: _1  and  _3
REMARK    2  A    between atoms: _3  and  _4
REMARK    3  A    between atoms: _3  and  _6
REMARK    4  A    between atoms: _6  and  _7
REMARK    5  A    between atoms: _7  and  _8
REMARK    6  A    between atoms: _8  and  _9
REMARK    7  A    between atoms: _9  and  _10
REMARK    8  A    between atoms: _14  and  _16
REMARK    9  A    between atoms: _16  and  _17
REMARK   10  A    between atoms: _16  and  _19
REMARK   11  A    between atoms: _19  and  _20
REMARK   12  A    between atoms: _22  and  _24
REMARK   13  A    between atoms: _24  and  _25
REMARK   14  A    between atoms: _27  and  _29
REMARK   15  A    between atoms: _29  and  _30
REMARK   16  A    between atoms: _29  and  _32
REMARK   17  A    between atoms: _32  and  _33
REMARK   18  A    between atoms: _33  and  _34
REMARK   19  A    between atoms: _39  and  _41
REMARK   20  A    between atoms: _41  and  _42
REMARK   21  A    between atoms: _44  and  _46
REMARK   22  A    between atoms: _46  and  _47
REMARK   23  A    between atoms: _46  and  _49
REMARK   24  A    between atoms: _49  and  _50
REMARK   25  A    between atoms: _55  and  _56
REMARK   26  A    between atoms: _58  and  _60
REMARK   27  A    between atoms: _60  and  _61
REMARK   28  A    between atoms: _60  and  _63
REMARK   29  A    between atoms: _63  and  _64
REMARK   30  A    between atoms: _67  and  _69
REMARK   31  A    between atoms: _69  and  _70
REMARK   32  A    between atoms: _69  and  _72
REMARK   33  A    between atoms: _75  and  _77
REMARK   34  A    between atoms: _77  and  _78
REMARK   35  A    between atoms: _77  and  _80
REMARK   36  A    between atoms: _80  and  _81
REMARK   37  A    between atoms: _84  and  _86
REMARK   38  A    between atoms: _86  and  _87
REMARK   39  A    between atoms: _86  and  _89
REMARK   40  A    between atoms: _89  and  _90
REMARK   41  A    between atoms: _93  and  _95
REMARK   42  A    between atoms: _95  and  _96
REMARK   43  A    between atoms: _98  and  _100
REMARK   44  A    between atoms: _100  and  _101
REMARK   45  A    between atoms: _100  and  _103
REMARK   46  A    between atoms: _103  and  _104
REMARK   47  A    between atoms: _106  and  _108
REMARK   48  A    between atoms: _108  and  _109
REMARK   49  A    between atoms: _108  and  _111
REMARK   50  A    between atoms: _111  and  _112
REMARK   51  A    between atoms: _114  and  _116
REMARK   52  A    between atoms: _116  and  _117
REMARK   53  A    between atoms: _116  and  _119
REMARK   54  A    between atoms: _119  and  _120
REMARK   55  A    between atoms: _125  and  _127
REMARK   56  A    between atoms: _127  and  _128
REMARK   57  A    between atoms: _127  and  _130
REMARK   58  A    between atoms: _130  and  _131
REMARK   59  A    between atoms: _136  and  _137
REMARK   60  A    between atoms: _139  and  _141
REMARK   61  A    between atoms: _141  and  _142
REMARK   62  A    between atoms: _141  and  _144
REMARK   63  A    between atoms: _148  and  _149
REMARK   64  A    between atoms: _154  and  _156
REMARK   65  A    between atoms: _156  and  _157
REMARK   66  A    between atoms: _156  and  _159
REMARK   67  A    between atoms: _159  and  _160
REMARK   68  A    between atoms: _165  and  _166
REMARK   69  A    between atoms: _168  and  _170
REMARK   70  A    between atoms: _170  and  _171
REMARK   71  A    between atoms: _170  and  _173
REMARK   72  A    between atoms: _173  and  _174
REMARK   73  A    between atoms: _177  and  _179
REMARK   74  A    between atoms: _179  and  _180
REMARK   75  A    between atoms: _179  and  _182
REMARK   76  A    between atoms: _182  and  _183
REMARK   77  A    between atoms: _183  and  _184
REMARK   78  A    between atoms: _189  and  _191
REMARK   79  A    between atoms: _191  and  _192
REMARK   80  A    between atoms: _194  and  _196
REMARK   81  A    between atoms: _196  and  _197
REMARK   82  A    between atoms: _196  and  _199
REMARK   83  A    between atoms: _199  and  _200
REMARK   84  A    between atoms: _200  and  _201
REMARK   85  A    between atoms: _201  and  _202
REMARK   86  A    between atoms: _202  and  _203
REMARK   87  A    between atoms: _207  and  _209
REMARK   88  A    between atoms: _209  and  _210
REMARK   89  A    between atoms: _209  and  _212
REMARK   90  A    between atoms: _212  and  _213
REMARK   91  A    between atoms: _223  and  _225
REMARK   92  A    between atoms: _225  and  _226
REMARK   93  A    between atoms: _225  and  _228
REMARK   94  A    between atoms: _228  and  _229
REMARK   95  A    between atoms: _232  and  _234
REMARK   96  A    between atoms: _234  and  _235
REMARK   97  A    between atoms: _234  and  _237
REMARK   98  A    between atoms: _237  and  _238
REMARK   99  A    between atoms: _238  and  _239
REMARK  100  A    between atoms: _239  and  _240
REMARK  101  A    between atoms: _240  and  _241
REMARK  102  A    between atoms: _245  and  _247
REMARK  103  A    between atoms: _247  and  _248
REMARK  104  A    between atoms: _247  and  _250
REMARK  105  A    between atoms: _250  and  _251
REMARK  106  A    between atoms: _257  and  _259
REMARK  107  A    between atoms: _259  and  _260
REMARK  108  A    between atoms: _259  and  _262
REMARK  109  A    between atoms: _262  and  _263
REMARK  110  A    between atoms: _269  and  _271
REMARK  111  A    between atoms: _271  and  _272
REMARK  112  A    between atoms: _271  and  _274
REMARK  113  A    between atoms: _274  and  _275
REMARK  114  A    between atoms: _278  and  _280
REMARK  115  A    between atoms: _280  and  _281
REMARK  116  A    between atoms: _280  and  _283
REMARK  117  A    between atoms: _283  and  _284
REMARK  118  A    between atoms: _286  and  _288
REMARK  119  A    between atoms: _288  and  _289
REMARK  120  A    between atoms: _288  and  _291
REMARK  121  A    between atoms: _291  and  _292
REMARK  122  A    between atoms: _302  and  _304
REMARK  123  A    between atoms: _304  and  _305
REMARK  124  A    between atoms: _307  and  _309
REMARK  125  A    between atoms: _309  and  _310
REMARK  126  A    between atoms: _309  and  _312
REMARK  127  A    between atoms: _312  and  _313
REMARK  128  A    between atoms: _316  and  _318
REMARK  129  A    between atoms: _318  and  _319
REMARK  130  A    between atoms: _318  and  _321
REMARK  131  A    between atoms: _321  and  _322
REMARK  132  A    between atoms: _325  and  _327
REMARK  133  A    between atoms: _327  and  _328
REMARK  134  A    between atoms: _330  and  _332
REMARK  135  A    between atoms: _332  and  _333
REMARK  136  A    between atoms: _332  and  _335
REMARK  137  A    between atoms: _335  and  _336
REMARK  138  A    between atoms: _339  and  _341
REMARK  139  A    between atoms: _341  and  _342
REMARK  140  A    between atoms: _345  and  _347
REMARK  141  A    between atoms: _347  and  _348
REMARK  142  A    between atoms: _347  and  _350
REMARK  143  A    between atoms: _350  and  _351
REMARK  144  A    between atoms: _354  and  _356
REMARK  145  A    between atoms: _356  and  _357
REMARK  146  A    between atoms: _360  and  _362
REMARK  147  A    between atoms: _362  and  _363
REMARK  148  A    between atoms: _362  and  _365
REMARK  149  A    between atoms: _365  and  _366
REMARK  150  A    between atoms: _366  and  _367
REMARK  151  A    between atoms: _367  and  _368
REMARK  152  A    between atoms: _377  and  _379
REMARK  153  A    between atoms: _379  and  _380
REMARK  154  A    between atoms: _379  and  _382
REMARK  155  A    between atoms: _382  and  _383
REMARK  156  A    between atoms: _386  and  _388
REMARK  157  A    between atoms: _388  and  _389
REMARK  158  A    between atoms: _388  and  _391
REMARK  159  A    between atoms: _391  and  _392
REMARK  160  A    between atoms: _397  and  _398
REMARK  161  A    between atoms: _400  and  _402
REMARK  162  A    between atoms: _402  and  _403
REMARK  163  A    between atoms: _402  and  _405
REMARK  164  A    between atoms: _405  and  _406
REMARK  165  A    between atoms: _411  and  _412
REMARK  166  A    between atoms: _414  and  _416
REMARK  167  A    between atoms: _416  and  _417
REMARK  168  A    between atoms: _416  and  _419
REMARK  169  A    between atoms: _419  and  _420
REMARK  170  A    between atoms: _420  and  _421
REMARK  171  A    between atoms: _421  and  _422
REMARK  172  A    between atoms: _422  and  _423
REMARK  173  A    between atoms: _427  and  _429
REMARK  174  A    between atoms: _429  and  _430
REMARK  175  A    between atoms: _429  and  _432
REMARK  176  A    between atoms: _432  and  _433
REMARK  177  A    between atoms: _436  and  _438
REMARK  178  A    between atoms: _438  and  _439
REMARK  179  A    between atoms: _438  and  _441
REMARK  180  A    between atoms: _444  and  _446
REMARK  181  A    between atoms: _446  and  _447
REMARK  182  A    between atoms: _446  and  _449
REMARK  183  A    between atoms: _449  and  _450
REMARK  184  A    between atoms: _453  and  _455
REMARK  185  A    between atoms: _455  and  _456
REMARK  186  A    between atoms: _455  and  _458
REMARK  187  A    between atoms: _458  and  _459
REMARK  188  A    between atoms: _461  and  _463
REMARK  189  A    between atoms: _463  and  _464
REMARK  190  A    between atoms: _466  and  _468
REMARK  191  A    between atoms: _468  and  _469
REMARK  192  A    between atoms: _468  and  _471
REMARK  193  A    between atoms: _471  and  _472
REMARK  194  A    between atoms: _475  and  _477
REMARK  195  A    between atoms: _477  and  _478
REMARK  196  A    between atoms: _477  and  _480
REMARK  197  A    between atoms: _480  and  _481
REMARK  198  A    between atoms: _484  and  _486
REMARK  199  A    between atoms: _486  and  _487
REMARK  200  A    between atoms: _486  and  _489
REMARK  201  A    between atoms: _489  and  _490
REMARK  202  A    between atoms: _495  and  _497
REMARK  203  A    between atoms: _497  and  _498
REMARK  204  A    between atoms: _497  and  _500
REMARK  205  A    between atoms: _500  and  _501
REMARK  206  A    between atoms: _501  and  _502
REMARK  207  A    between atoms: _502  and  _503
REMARK  208  A    between atoms: _512  and  _514
REMARK  209  A    between atoms: _514  and  _515
REMARK  210  A    between atoms: _514  and  _517
REMARK  211  A    between atoms: _517  and  _518
REMARK  212  A    between atoms: _518  and  _519
REMARK  213  A    between atoms: _519  and  _520
REMARK  214  A    between atoms: _529  and  _531
REMARK  215  A    between atoms: _531  and  _532
REMARK  216  A    between atoms: _531  and  _534
REMARK  217  A    between atoms: _534  and  _535
REMARK  218  A    between atoms: _537  and  _539
REMARK  219  A    between atoms: _539  and  _540
REMARK  220  A    between atoms: _539  and  _542
REMARK  221  A    between atoms: _542  and  _543
REMARK  222  A    between atoms: _543  and  _544
REMARK  223  A    between atoms: _549  and  _551
REMARK  224  A    between atoms: _551  and  _552
REMARK  225  A    between atoms: _551  and  _554
REMARK  226  A    between atoms: _554  and  _555
REMARK  227  A    between atoms: _557  and  _559
REMARK  228  A    between atoms: _559  and  _560
REMARK  229  A    between atoms: _559  and  _562
REMARK  230  A    between atoms: _562  and  _563
REMARK  231  A    between atoms: _565  and  _567
REMARK  232  A    between atoms: _567  and  _568
REMARK  233  A    between atoms: _567  and  _570
REMARK  234  A    between atoms: _570  and  _571
REMARK  235  A    between atoms: _574  and  _576
REMARK  236  A    between atoms: _576  and  _577
REMARK  237  A    between atoms: _576  and  _579
REMARK  238  A    between atoms: _579  and  _580
REMARK  239  A    between atoms: _583  and  _585
REMARK  240  A    between atoms: _585  and  _586
REMARK  241  A    between atoms: _585  and  _588
REMARK  242  A    between atoms: _591  and  _593
REMARK  243  A    between atoms: _593  and  _594
REMARK  244  A    between atoms: _596  and  _598
REMARK  245  A    between atoms: _598  and  _599
REMARK  246  A    between atoms: _602  and  _604
REMARK  247  A    between atoms: _604  and  _605
REMARK  248  A    between atoms: _604  and  _607
REMARK                            x       y       z     vdW  Elec       q    Type
REMARK                         _______ _______ _______ _____ _____    ______ ____
ROOT
ATOM      1  NE  ARG A   1      36.656  14.393  25.120  0.00  0.00    -0.265 N 
ATOM      2  HE  ARG A   1      36.130  14.944  25.828  0.00  0.00    +0.259 HD
ATOM      3  CZ  ARG A   1      36.948  14.981  23.963  0.00  0.00    +0.342 C 
ATOM      4  NH2 ARG A   1      36.560  16.228  23.730  0.00  0.00    -0.292 N 
ATOM      5 HH21 ARG A   1      36.025  16.750  24.453  0.00  0.00    +0.255 HD
ATOM      6 HH22 ARG A   1      36.791  16.684  22.824  0.00  0.00    +0.255 HD
ATOM      7  NH1 ARG A   1      37.620  14.318  23.029  0.00  0.00    -0.292 N 
ATOM      8 HH11 ARG A   1      37.919  13.337  23.201  0.00  0.00    +0.255 HD
ATOM      9 HH12 ARG A   1      37.847  14.780  22.125  0.00  0.00    +0.255 HD
ENDROOT
BRANCH   1  10
ATOM     10  CD  ARG A   1      37.030  13.019  25.458  0.00  0.00    +0.174 C 
BRANCH  10  11
ATOM     11  CG  ARG A   1      38.497  12.883  25.860  0.00  0.00    +0.045 C 
BRANCH  11  12
ATOM     12  CB  ARG A   1      38.766  13.649  27.150  0.00  0.00    +0.029 C 
BRANCH  12  13
ATOM     13  CA  ARG A   1      40.132  13.389  27.807  0.00  0.00    +0.133 C 
BRANCH  13  14
ATOM     14  N   ARG A   1      40.170  14.063  29.101  0.00  0.00    -0.239 NA
ATOM     15  H   ARG A   1      39.613  14.931  29.233  0.00  0.00    +0.142 HD
ENDBRANCH  13  14
BRANCH  13  16
ATOM     16  C   ARG A   1      41.263  13.814  26.885  0.00  0.00    +0.224 C 
ATOM     17  O   ARG A   1      41.405  14.988  26.558  0.00  0.00    -0.287 OA
ENDBRANCH  13  16
ENDBRANCH  12  13
ENDBRANCH  11  12
ENDBRANCH  10  11
ENDBRANCH   1  10
TORSDOF 6
REMARK  Name = ../refined-set-2016/2qmg/2qmg_pocket.pdb
REMARK  248 active torsions:
REMARK  status: ('A' for Active; 'I' for Inactive)
REMARK    1  A    between atoms: _1  and  _3
REMARK    2  A    between atoms: _3  and  _4
REMARK    3  A    between atoms: _3  and  _6
REMARK    4  A    between atoms: _6  and  _7
REMARK    5  A    between atoms: _7  and  _8
REMARK    6  A    between atoms: _8  and  _9
REMARK    7  A    between atoms: _9  and  _10
REMARK    8  A    between atoms: _14  and  _16
REMARK    9  A    between atoms: _16  and  _17
REMARK   10  A    between atoms: _16  and  _19
REMARK   11  A    between atoms: _19  and  _20
REMARK   12  A    between atoms: _22  and  _24
REMARK   13  A    between atoms: _24  and  _25
REMARK   14  A    between atoms: _27  and  _29
REMARK   15  A    between atoms: _29  and  _30
REMARK   16  A    between atoms: _29  and  _32
REMARK   17  A    between atoms: _32  and  _33
REMARK   18  A    between atoms: _33  and  _34
REMARK   19  A    between atoms: _39  and  _41
REMARK   20  A    between atoms: _41  and  _42
REMARK   21  A    between atoms: _44  and  _46
REMARK   22  A    between atoms: _46  and  _47
REMARK   23  A    between atoms: _46  and  _49
REMARK   24  A    between atoms: _49  and  _50
REMARK   25  A    between atoms: _55  and  _56
REMARK   26  A    between atoms: _58  and  _60
REMARK   27  A    between atoms: _60  and  _61
REMARK   28  A    between atoms: _60  and  _63
REMARK   29  A    between atoms: _63  and  _64
REMARK   30  A    between atoms: _67  and  _69
REMARK   31  A    between atoms: _69  and  _70
REMARK   32  A    between atoms: _69  and  _72
REMARK   33  A    between atoms: _75  and  _77
REMARK   34  A    between atoms: _77  and  _78
REMARK   35  A    between atoms: _77  and  _80
REMARK   36  A    between atoms: _80  and  _81
REMARK   37  A    between atoms: _84  and  _86
REMARK   38  A    between atoms: _86  and  _87
REMARK   39  A    between atoms: _86  and  _89
REMARK   40  A    between atoms: _89  and  _90
REMARK   41  A    between atoms: _93  and  _95
REMARK   42  A    between atoms: _95  and  _96
REMARK   43  A    between atoms: _98  and  _100
REMARK   44  A    between atoms: _100  and  _101
REMARK   45  A    between atoms: _100  and  _103
REMARK   46  A    between atoms: _103  and  _104
REMARK   47  A    between atoms: _106  and  _108
REMARK   48  A    between atoms: _108  and  _109
REMARK   49  A    between atoms: _108  and  _111
REMARK   50  A    between atoms: _111  and  _112
REMARK   51  A    between atoms: _114  and  _116
REMARK   52  A    between atoms: _116  and  _117
REMARK   53  A    between atoms: _116  and  _119
REMARK   54  A    between atoms: _119  and  _120
REMARK   55  A    between atoms: _125  and  _127
REMARK   56  A    between atoms: _127  and  _128
REMARK   57  A    between atoms: _127  and  _130
REMARK   58  A    between atoms: _130  and  _131
REMARK   59  A    between atoms: _136  and  _137
REMARK   60  A    between atoms: _139  and  _141
REMARK   61  A    between atoms: _141  and  _142
REMARK   62  A    between atoms: _141  and  _144
REMARK   63  A    between atoms: _148  and  _149
REMARK   64  A    between atoms: _154  and  _156
REMARK   65  A    between atoms: _156  and  _157
REMARK   66  A    between atoms: _156  and  _159
REMARK   67  A    between atoms: _159  and  _160
REMARK   68  A    between atoms: _165  and  _166
REMARK   69  A    between atoms: _168  and  _170
REMARK   70  A    between atoms: _170  and  _171
REMARK   71  A    between atoms: _170  and  _173
REMARK   72  A    between atoms: _173  and  _174
REMARK   73  A    between atoms: _177  and  _179
REMARK   74  A    between atoms: _179  and  _180
REMARK   75  A    between atoms: _179  and  _182
REMARK   76  A    between atoms: _182  and  _183
REMARK   77  A    between atoms: _183  and  _184
REMARK   78  A    between atoms: _189  and  _191
REMARK   79  A    between atoms: _191  and  _192
REMARK   80  A    between atoms: _194  and  _196
REMARK   81  A    between atoms: _196  and  _197
REMARK   82  A    between atoms: _196  and  _199
REMARK   83  A    between atoms: _199  and  _200
REMARK   84  A    between atoms: _200  and  _201
REMARK   85  A    between atoms: _201  and  _202
REMARK   86  A    between atoms: _202  and  _203
REMARK   87  A    between atoms: _207  and  _209
REMARK   88  A    between atoms: _209  and  _210
REMARK   89  A    between atoms: _209  and  _212
REMARK   90  A    between atoms: _212  and  _213
REMARK   91  A    between atoms: _223  and  _225
REMARK   92  A    between atoms: _225  and  _226
REMARK   93  A    between atoms: _225  and  _228
REMARK   94  A    between atoms: _228  and  _229
REMARK   95  A    between atoms: _232  and  _234
REMARK   96  A    between atoms: _234  and  _235
REMARK   97  A    between atoms: _234  and  _237
REMARK   98  A    between atoms: _237  and  _238
REMARK   99  A    between atoms: _238  and  _239
REMARK  100  A    between atoms: _239  and  _240
REMARK  101  A    between atoms: _240  and  _241
REMARK  102  A    between atoms: _245  and  _247
REMARK  103  A    between atoms: _247  and  _248
REMARK  104  A    between atoms: _247  and  _250
REMARK  105  A    between atoms: _250  and  _251
REMARK  106  A    between atoms: _257  and  _259
REMARK  107  A    between atoms: _259  and  _260
REMARK  108  A    between atoms: _259  and  _262
REMARK  109  A    between atoms: _262  and  _263
REMARK  110  A    between atoms: _269  and  _271
REMARK  111  A    between atoms: _271  and  _272
REMARK  112  A    between atoms: _271  and  _274
REMARK  113  A    between atoms: _274  and  _275
REMARK  114  A    between atoms: _278  and  _280
REMARK  115  A    between atoms: _280  and  _281
REMARK  116  A    between atoms: _280  and  _283
REMARK  117  A    between atoms: _283  and  _284
REMARK  118  A    between atoms: _286  and  _288
REMARK  119  A    between atoms: _288  and  _289
REMARK  120  A    between atoms: _288  and  _291
REMARK  121  A    between atoms: _291  and  _292
REMARK  122  A    between atoms: _302  and  _304
REMARK  123  A    between atoms: _304  and  _305
REMARK  124  A    between atoms: _307  and  _309
REMARK  125  A    between atoms: _309  and  _310
REMARK  126  A    between atoms: _309  and  _312
REMARK  127  A    between atoms: _312  and  _313
REMARK  128  A    between atoms: _316  and  _318
REMARK  129  A    between atoms: _318  and  _319
REMARK  130  A    between atoms: _318  and  _321
REMARK  131  A    between atoms: _321  and  _322
REMARK  132  A    between atoms: _325  and  _327
REMARK  133  A    between atoms: _327  and  _328
REMARK  134  A    between atoms: _330  and  _332
REMARK  135  A    between atoms: _332  and  _333
REMARK  136  A    between atoms: _332  and  _335
REMARK  137  A    between atoms: _335  and  _336
REMARK  138  A    between atoms: _339  and  _341
REMARK  139  A    between atoms: _341  and  _342
REMARK  140  A    between atoms: _345  and  _347
REMARK  141  A    between atoms: _347  and  _348
REMARK  142  A    between atoms: _347  and  _350
REMARK  143  A    between atoms: _350  and  _351
REMARK  144  A    between atoms: _354  and  _356
REMARK  145  A    between atoms: _356  and  _357
REMARK  146  A    between atoms: _360  and  _362
REMARK  147  A    between atoms: _362  and  _363
REMARK  148  A    between atoms: _362  and  _365
REMARK  149  A    between atoms: _365  and  _366
REMARK  150  A    between atoms: _366  and  _367
REMARK  151  A    between atoms: _367  and  _368
REMARK  152  A    between atoms: _377  and  _379
REMARK  153  A    between atoms: _379  and  _380
REMARK  154  A    between atoms: _379  and  _382
REMARK  155  A    between atoms: _382  and  _383
REMARK  156  A    between atoms: _386  and  _388
REMARK  157  A    between atoms: _388  and  _389
REMARK  158  A    between atoms: _388  and  _391
REMARK  159  A    between atoms: _391  and  _392
REMARK  160  A    between atoms: _397  and  _398
REMARK  161  A    between atoms: _400  and  _402
REMARK  162  A    between atoms: _402  and  _403
REMARK  163  A    between atoms: _402  and  _405
REMARK  164  A    between atoms: _405  and  _406
REMARK  165  A    between atoms: _411  and  _412
REMARK  166  A    between atoms: _414  and  _416
REMARK  167  A    between atoms: _416  and  _417
REMARK  168  A    between atoms: _416  and  _419
REMARK  169  A    between atoms: _419  and  _420
REMARK  170  A    between atoms: _420  and  _421
REMARK  171  A    between atoms: _421  and  _422
REMARK  172  A    between atoms: _422  and  _423
REMARK  173  A    between atoms: _427  and  _429
REMARK  174  A    between atoms: _429  and  _430
REMARK  175  A    between atoms: _429  and  _432
REMARK  176  A    between atoms: _432  and  _433
REMARK  177  A    between atoms: _436  and  _438
REMARK  178  A    between atoms: _438  and  _439
REMARK  179  A    between atoms: _438  and  _441
REMARK  180  A    between atoms: _444  and  _446
REMARK  181  A    between atoms: _446  and  _447
REMARK  182  A    between atoms: _446  and  _449
REMARK  183  A    between atoms: _449  and  _450
REMARK  184  A    between atoms: _453  and  _455
REMARK  185  A    between atoms: _455  and  _456
REMARK  186  A    between atoms: _455  and  _458
REMARK  187  A    between atoms: _458  and  _459
REMARK  188  A    between atoms: _461  and  _463
REMARK  189  A    between atoms: _463  and  _464
REMARK  190  A    between atoms: _466  and  _468
REMARK  191  A    between atoms: _468  and  _469
REMARK  192  A    between atoms: _468  and  _471
REMARK  193  A    between atoms: _471  and  _472
REMARK  194  A    between atoms: _475  and  _477
REMARK  195  A    between atoms: _477  and  _478
REMARK  196  A    between atoms: _477  and  _480
REMARK  197  A    between atoms: _480  and  _481
REMARK  198  A    between atoms: _484  and  _486
REMARK  199  A    between atoms: _486  and  _487
REMARK  200  A    between atoms: _486  and  _489
REMARK  201  A    between atoms: _489  and  _490
REMARK  202  A    between atoms: _495  and  _497
REMARK  203  A    between atoms: _497  and  _498
REMARK  204  A    between atoms: _497  and  _500
REMARK  205  A    between atoms: _500  and  _501
REMARK  206  A    between atoms: _501  and  _502
REMARK  207  A    between atoms: _502  and  _503
REMARK  208  A    between atoms: _512  and  _514
REMARK  209  A    between atoms: _514  and  _515
REMARK  210  A    between atoms: _514  and  _517
REMARK  211  A    between atoms: _517  and  _518
REMARK  212  A    between atoms: _518  and  _519
REMARK  213  A    between atoms: _519  and  _520
REMARK  214  A    between atoms: _529  and  _531
REMARK  215  A    between atoms: _531  and  _532
REMARK  216  A    between atoms: _531  and  _534
REMARK  217  A    between atoms: _534  and  _535
REMARK  218  A    between atoms: _537  and  _539
REMARK  219  A    between atoms: _539  and  _540
REMARK  220  A    between atoms: _539  and  _542
REMARK  221  A    between atoms: _542  and  _543
REMARK  222  A    between atoms: _543  and  _544
REMARK  223  A    between atoms: _549  and  _551
REMARK  224  A    between atoms: _551  and  _552
REMARK  225  A    between atoms: _551  and  _554
REMARK  226  A    between atoms: _554  and  _555
REMARK  227  A    between atoms: _557  and  _559
REMARK  228  A    between atoms: _559  and  _560
REMARK  229  A    between atoms: _559  and  _562
REMARK  230  A    between atoms: _562  and  _563
REMARK  231  A    between atoms: _565  and  _567
REMARK  232  A    between atoms: _567  and  _568
REMARK  233  A    between atoms: _567  and  _570
REMARK  234  A    between atoms: _570  and  _571
REMARK  235  A    between atoms: _574  and  _576
REMARK  236  A    between atoms: _576  and  _577
REMARK  237  A    between atoms: _576  and  _579
REMARK  238  A    between atoms: _579  and  _580
REMARK  239  A    between atoms: _583  and  _585
REMARK  240  A    between atoms: _585  and  _586
REMARK  241  A    between atoms: _585  and  _588
REMARK  242  A    between atoms: _591  and  _593
REMARK  243  A    between atoms: _593  and  _594
REMARK  244  A    between atoms: _596  and  _598
REMARK  245  A    between atoms: _598  and  _599
REMARK  246  A    between atoms: _602  and  _604
REMARK  247  A    between atoms: _604  and  _605
REMARK  248  A    between atoms: _604  and  _607
REMARK                            x       y       z     vdW  Elec       q    Type
REMARK                         _______ _______ _______ _____ _____    ______ ____
ROOT
ATOM      1  CA  SER A   3      23.694  19.217  32.964  0.00  0.00    +0.178 C 
ENDROOT
BRANCH   1   3
ATOM      2  C   GLN A   2      25.910  20.226  32.831  0.00  0.00    +0.241 C 
ATOM      3  N   SER A   3      24.894  19.795  33.563  0.00  0.00    -0.295 N 
ATOM      4  H   SER A   3      24.953  19.871  34.599  0.00  0.00    +0.150 HD
ATOM      5  O   GLN A   2      25.931  20.161  31.600  0.00  0.00    -0.273 OA
BRANCH   2   6
ATOM      6  CA  GLN A   2      27.070  20.823  33.612  0.00  0.00    +0.149 C 
BRANCH   6   9
ATOM      7  C   SER A   1      28.980  19.390  33.159  0.00  0.00    +0.241 C 
ATOM      8  O   SER A   1      28.492  18.423  33.746  0.00  0.00    -0.274 OA
ATOM      9  N   GLN A   2      28.365  20.554  33.028  0.00  0.00    -0.297 N 
ATOM     10  H   GLN A   2      28.832  21.306  32.483  0.00  0.00    +0.150 HD
BRANCH   7  11
ATOM     11  CA  SER A   1      30.355  19.329  32.524  0.00  0.00    +0.174 C 
BRANCH  11  12
ATOM     12  N   SER A   1      31.090  18.128  32.864  0.00  0.00    -0.236 NA
ATOM     13  H   SER A   1      30.590  17.224  32.982  0.00  0.00    +0.142 HD
ENDBRANCH  11  12
BRANCH  11  14
ATOM     14  CB  SER A   1      30.251  19.469  31.004  0.00  0.00    +0.163 C 
BRANCH  14  15
ATOM     15  OG  SER A   1      29.679  18.318  30.425  0.00  0.00    -0.380 OA
ATOM     16  H   SER A   1      29.624  18.436  29.444  0.00  0.00    +0.211 HD
ENDBRANCH  14  15
ENDBRANCH  11  14
ENDBRANCH   7  11
ENDBRANCH   6   9
BRANCH   6  17
ATOM     17  CB  GLN A   2      26.903  22.341  33.727  0.00  0.00    +0.039 C 
BRANCH  17  18
ATOM     18  CG  GLN A   2      25.667  22.800  34.445  0.00  0.00    +0.087 C 
BRANCH  18  19
ATOM     19  CD  GLN A   2      25.599  24.315  34.531  0.00  0.00    +0.219 C 
ATOM     20  OE1 GLN A   2      24.517  24.895  34.583  0.00  0.00    -0.275 OA
ATOM     21  NE2 GLN A   2      26.760  24.960  34.550  0.00  0.00    -0.329 N 
ATOM     22 HE21 GLN A   2      26.777  25.998  34.611  0.00  0.00    +0.145 HD
ATOM     23 HE22 GLN A   2      27.652  24.427  34.504  0.00  0.00    +0.145 HD
ENDBRANCH  18  19
ENDBRANCH  17  18
ENDBRANCH   6  17
ENDBRANCH   2   6
ENDBRANCH   1   3
BRANCH   1  24
ATOM     24  C   SER A   3      22.454  19.871  33.559  0.00  0.00    +0.243 C 
ATOM     25  O   SER A   3      22.479  20.349  34.697  0.00  0.00    -0.273 OA
ATOM     26  N   SER A   4      21.370  19.894  32.788  0.00  0.00    -0.295 N 
ATOM     27  H   SER A   4      21.420  19.510  31.823  0.00  0.00    +0.150 HD
BRANCH  26  28
ATOM     28  CA  SER A   4      20.114  20.449  33.275  0.00  0.00    +0.178 C 
BRANCH  28  29
ATOM     29  C   SER A   4      19.090  19.318  33.264  0.00  0.00    +0.243 C 
ATOM     30  O   SER A   4      17.901  19.537  33.491  0.00  0.00    -0.273 OA
ATOM     31  N   THR A   5      19.568  18.100  33.008  0.00  0.00    -0.296 N 
ATOM     32  H   THR A   5      20.587  17.981  32.840  0.00  0.00    +0.150 HD
BRANCH  31  33
ATOM     33  CA  THR A   5      18.700  16.931  32.957  0.00  0.00    +0.164 C 
BRANCH  33  34
ATOM     34  CB  THR A   5      18.552  16.415  31.501  0.00  0.00    +0.136 C 
ATOM     35  CG2 THR A   5      17.894  17.487  30.619  0.00  0.00    +0.034 C 
BRANCH  34  36
ATOM     36  OG1 THR A   5      19.844  16.091  30.971  0.00  0.00    -0.382 OA
ATOM     37  HG1 THR A   5      20.414  16.900  30.977  0.00  0.00    +0.210 HD
ENDBRANCH  34  36
ENDBRANCH  33  34
BRANCH  33  38
ATOM     38  C   THR A   5      19.184  15.779  33.836  0.00  0.00    +0.229 C 
ATOM     39  O   THR A   5      18.953  14.608  33.529  0.00  0.00    -0.286 OA
ENDBRANCH  33  38
ENDBRANCH  31  33
ENDBRANCH  28  29
BRANCH  28  40
ATOM     40  CB  SER A   4      19.639  21.600  32.376  0.00  0.00    +0.166 C 
BRANCH  40  41
ATOM     41  OG  SER A   4      19.501  21.174  31.029  0.00  0.00    -0.380 OA
ATOM     42  H   SER A   4      19.194  21.934  30.474  0.00  0.00    +0.211 HD
ENDBRANCH  40  41
ENDBRANCH  28  40
ENDBRANCH  26  28
ENDBRANCH   1  24
BRANCH   1  43
ATOM     43  CB  SER A   3      23.641  17.711  33.242  0.00  0.00    +0.166 C 
BRANCH  43  44
ATOM     44  OG  SER A   3      22.357  17.170  32.964  0.00  0.00    -0.380 OA
ATOM     45  H   SER A   3      22.361  16.199  33.155  0.00  0.00    +0.211 HD
ENDBRANCH  43  44
ENDBRANCH   1  43
TORSDOF 21
REMARK  Name = ../refined-set-2016/2qmg/2qmg_pocket.pdb
REMARK  248 active torsions:
REMARK  status: ('A' for Active; 'I' for Inactive)
REMARK    1  A    between atoms: _1  and  _3
REMARK    2  A    between atoms: _3  and  _4
REMARK    3  A    between atoms: _3  and  _6
REMARK    4  A    between atoms: _6  and  _7
REMARK    5  A    between atoms: _7  and  _8
REMARK    6  A    between atoms: _8  and  _9
REMARK    7  A    between atoms: _9  and  _10
REMARK    8  A    between atoms: _14  and  _16
REMARK    9  A    between atoms: _16  and  _17
REMARK   10  A    between atoms: _16  and  _19
REMARK   11  A    between atoms: _19  and  _20
REMARK   12  A    between atoms: _22  and  _24
REMARK   13  A    between atoms: _24  and  _25
REMARK   14  A    between atoms: _27  and  _29
REMARK   15  A    between atoms: _29  and  _30
REMARK   16  A    between atoms: _29  and  _32
REMARK   17  A    between atoms: _32  and  _33
REMARK   18  A    between atoms: _33  and  _34
REMARK   19  A    between atoms: _39  and  _41
REMARK   20  A    between atoms: _41  and  _42
REMARK   21  A    between atoms: _44  and  _46
REMARK   22  A    between atoms: _46  and  _47
REMARK   23  A    between atoms: _46  and  _49
REMARK   24  A    between atoms: _49  and  _50
REMARK   25  A    between atoms: _55  and  _56
REMARK   26  A    between atoms: _58  and  _60
REMARK   27  A    between atoms: _60  and  _61
REMARK   28  A    between atoms: _60  and  _63
REMARK   29  A    between atoms: _63  and  _64
REMARK   30  A    between atoms: _67  and  _69
REMARK   31  A    between atoms: _69  and  _70
REMARK   32  A    between atoms: _69  and  _72
REMARK   33  A    between atoms: _75  and  _77
REMARK   34  A    between atoms: _77  and  _78
REMARK   35  A    between atoms: _77  and  _80
REMARK   36  A    between atoms: _80  and  _81
REMARK   37  A    between atoms: _84  and  _86
REMARK   38  A    between atoms: _86  and  _87
REMARK   39  A    between atoms: _86  and  _89
REMARK   40  A    between atoms: _89  and  _90
REMARK   41  A    between atoms: _93  and  _95
REMARK   42  A    between atoms: _95  and  _96
REMARK   43  A    between atoms: _98  and  _100
REMARK   44  A    between atoms: _100  and  _101
REMARK   45  A    between atoms: _100  and  _103
REMARK   46  A    between atoms: _103  and  _104
REMARK   47  A    between atoms: _106  and  _108
REMARK   48  A    between atoms: _108  and  _109
REMARK   49  A    between atoms: _108  and  _111
REMARK   50  A    between atoms: _111  and  _112
REMARK   51  A    between atoms: _114  and  _116
REMARK   52  A    between atoms: _116  and  _117
REMARK   53  A    between atoms: _116  and  _119
REMARK   54  A    between atoms: _119  and  _120
REMARK   55  A    between atoms: _125  and  _127
REMARK   56  A    between atoms: _127  and  _128
REMARK   57  A    between atoms: _127  and  _130
REMARK   58  A    between atoms: _130  and  _131
REMARK   59  A    between atoms: _136  and  _137
REMARK   60  A    between atoms: _139  and  _141
REMARK   61  A    between atoms: _141  and  _142
REMARK   62  A    between atoms: _141  and  _144
REMARK   63  A    between atoms: _148  and  _149
REMARK   64  A    between atoms: _154  and  _156
REMARK   65  A    between atoms: _156  and  _157
REMARK   66  A    between atoms: _156  and  _159
REMARK   67  A    between atoms: _159  and  _160
REMARK   68  A    between atoms: _165  and  _166
REMARK   69  A    between atoms: _168  and  _170
REMARK   70  A    between atoms: _170  and  _171
REMARK   71  A    between atoms: _170  and  _173
REMARK   72  A    between atoms: _173  and  _174
REMARK   73  A    between atoms: _177  and  _179
REMARK   74  A    between atoms: _179  and  _180
REMARK   75  A    between atoms: _179  and  _182
REMARK   76  A    between atoms: _182  and  _183
REMARK   77  A    between atoms: _183  and  _184
REMARK   78  A    between atoms: _189  and  _191
REMARK   79  A    between atoms: _191  and  _192
REMARK   80  A    between atoms: _194  and  _196
REMARK   81  A    between atoms: _196  and  _197
REMARK   82  A    between atoms: _196  and  _199
REMARK   83  A    between atoms: _199  and  _200
REMARK   84  A    between atoms: _200  and  _201
REMARK   85  A    between atoms: _201  and  _202
REMARK   86  A    between atoms: _202  and  _203
REMARK   87  A    between atoms: _207  and  _209
REMARK   88  A    between atoms: _209  and  _210
REMARK   89  A    between atoms: _209  and  _212
REMARK   90  A    between atoms: _212  and  _213
REMARK   91  A    between atoms: _223  and  _225
REMARK   92  A    between atoms: _225  and  _226
REMARK   93  A    between atoms: _225  and  _228
REMARK   94  A    between atoms: _228  and  _229
REMARK   95  A    between atoms: _232  and  _234
REMARK   96  A    between atoms: _234  and  _235
REMARK   97  A    between atoms: _234  and  _237
REMARK   98  A    between atoms: _237  and  _238
REMARK   99  A    between atoms: _238  and  _239
REMARK  100  A    between atoms: _239  and  _240
REMARK  101  A    between atoms: _240  and  _241
REMARK  102  A    between atoms: _245  and  _247
REMARK  103  A    between atoms: _247  and  _248
REMARK  104  A    between atoms: _247  and  _250
REMARK  105  A    between atoms: _250  and  _251
REMARK  106  A    between atoms: _257  and  _259
REMARK  107  A    between atoms: _259  and  _260
REMARK  108  A    between atoms: _259  and  _262
REMARK  109  A    between atoms: _262  and  _263
REMARK  110  A    between atoms: _269  and  _271
REMARK  111  A    between atoms: _271  and  _272
REMARK  112  A    between atoms: _271  and  _274
REMARK  113  A    between atoms: _274  and  _275
REMARK  114  A    between atoms: _278  and  _280
REMARK  115  A    between atoms: _280  and  _281
REMARK  116  A    between atoms: _280  and  _283
REMARK  117  A    between atoms: _283  and  _284
REMARK  118  A    between atoms: _286  and  _288
REMARK  119  A    between atoms: _288  and  _289
REMARK  120  A    between atoms: _288  and  _291
REMARK  121  A    between atoms: _291  and  _292
REMARK  122  A    between atoms: _302  and  _304
REMARK  123  A    between atoms: _304  and  _305
REMARK  124  A    between atoms: _307  and  _309
REMARK  125  A    between atoms: _309  and  _310
REMARK  126  A    between atoms: _309  and  _312
REMARK  127  A    between atoms: _312  and  _313
REMARK  128  A    between atoms: _316  and  _318
REMARK  129  A    between atoms: _318  and  _319
REMARK  130  A    between atoms: _318  and  _321
REMARK  131  A    between atoms: _321  and  _322
REMARK  132  A    between atoms: _325  and  _327
REMARK  133  A    between atoms: _327  and  _328
REMARK  134  A    between atoms: _330  and  _332
REMARK  135  A    between atoms: _332  and  _333
REMARK  136  A    between atoms: _332  and  _335
REMARK  137  A    between atoms: _335  and  _336
REMARK  138  A    between atoms: _339  and  _341
REMARK  139  A    between atoms: _341  and  _342
REMARK  140  A    between atoms: _345  and  _347
REMARK  141  A    between atoms: _347  and  _348
REMARK  142  A    between atoms: _347  and  _350
REMARK  143  A    between atoms: _350  and  _351
REMARK  144  A    between atoms: _354  and  _356
REMARK  145  A    between atoms: _356  and  _357
REMARK  146  A    between atoms: _360  and  _362
REMARK  147  A    between atoms: _362  and  _363
REMARK  148  A    between atoms: _362  and  _365
REMARK  149  A    between atoms: _365  and  _366
REMARK  150  A    between atoms: _366  and  _367
REMARK  151  A    between atoms: _367  and  _368
REMARK  152  A    between atoms: _377  and  _379
REMARK  153  A    between atoms: _379  and  _380
REMARK  154  A    between atoms: _379  and  _382
REMARK  155  A    between atoms: _382  and  _383
REMARK  156  A    between atoms: _386  and  _388
REMARK  157  A    between atoms: _388  and  _389
REMARK  158  A    between atoms: _388  and  _391
REMARK  159  A    between atoms: _391  and  _392
REMARK  160  A    between atoms: _397  and  _398
REMARK  161  A    between atoms: _400  and  _402
REMARK  162  A    between atoms: _402  and  _403
REMARK  163  A    between atoms: _402  and  _405
REMARK  164  A    between atoms: _405  and  _406
REMARK  165  A    between atoms: _411  and  _412
REMARK  166  A    between atoms: _414  and  _416
REMARK  167  A    between atoms: _416  and  _417
REMARK  168  A    between atoms: _416  and  _419
REMARK  169  A    between atoms: _419  and  _420
REMARK  170  A    between atoms: _420  and  _421
REMARK  171  A    between atoms: _421  and  _422
REMARK  172  A    between atoms: _422  and  _423
REMARK  173  A    between atoms: _427  and  _429
REMARK  174  A    between atoms: _429  and  _430
REMARK  175  A    between atoms: _429  and  _432
REMARK  176  A    between atoms: _432  and  _433
REMARK  177  A    between atoms: _436  and  _438
REMARK  178  A    between atoms: _438  and  _439
REMARK  179  A    between atoms: _438  and  _441
REMARK  180  A    between atoms: _444  and  _446
REMARK  181  A    between atoms: _446  and  _447
REMARK  182  A    between atoms: _446  and  _449
REMARK  183  A    between atoms: _449  and  _450
REMARK  184  A    between atoms: _453  and  _455
REMARK  185  A    between atoms: _455  and  _456
REMARK  186  A    between atoms: _455  and  _458
REMARK  187  A    between atoms: _458  and  _459
REMARK  188  A    between atoms: _461  and  _463
REMARK  189  A    between atoms: _463  and  _464
REMARK  190  A    between atoms: _466  and  _468
REMARK  191  A    between atoms: _468  and  _469
REMARK  192  A    between atoms: _468  and  _471
REMARK  193  A    between atoms: _471  and  _472
REMARK  194  A    between atoms: _475  and  _477
REMARK  195  A    between atoms: _477  and  _478
REMARK  196  A    between atoms: _477  and  _480
REMARK  197  A    between atoms: _480  and  _481
REMARK  198  A    between atoms: _484  and  _486
REMARK  199  A    between atoms: _486  and  _487
REMARK  200  A    between atoms: _486  and  _489
REMARK  201  A    between atoms: _489  and  _490
REMARK  202  A    between atoms: _495  and  _497
REMARK  203  A    between atoms: _497  and  _498
REMARK  204  A    between atoms: _497  and  _500
REMARK  205  A    between atoms: _500  and  _501
REMARK  206  A    between atoms: _501  and  _502
REMARK  207  A    between atoms: _502  and  _503
REMARK  208  A    between atoms: _512  and  _514
REMARK  209  A    between atoms: _514  and  _515
REMARK  210  A    between atoms: _514  and  _517
REMARK  211  A    between atoms: _517  and  _518
REMARK  212  A    between atoms: _518  and  _519
REMARK  213  A    between atoms: _519  and  _520
REMARK  214  A    between atoms: _529  and  _531
REMARK  215  A    between atoms: _531  and  _532
REMARK  216  A    between atoms: _531  and  _534
REMARK  217  A    between atoms: _534  and  _535
REMARK  218  A    between atoms: _537  and  _539
REMARK  219  A    between atoms: _539  and  _540
REMARK  220  A    between atoms: _539  and  _542
REMARK  221  A    between atoms: _542  and  _543
REMARK  222  A    between atoms: _543  and  _544
REMARK  223  A    between atoms: _549  and  _551
REMARK  224  A    between atoms: _551  and  _552
REMARK  225  A    between atoms: _551  and  _554
REMARK  226  A    between atoms: _554  and  _555
REMARK  227  A    between atoms: _557  and  _559
REMARK  228  A    between atoms: _559  and  _560
REMARK  229  A    between atoms: _559  and  _562
REMARK  230  A    between atoms: _562  and  _563
REMARK  231  A    between atoms: _565  and  _567
REMARK  232  A    between atoms: _567  and  _568
REMARK  233  A    between atoms: _567  and  _570
REMARK  234  A    between atoms: _570  and  _571
REMARK  235  A    between atoms: _574  and  _576
REMARK  236  A    between atoms: _576  and  _577
REMARK  237  A    between atoms: _576  and  _579
REMARK  238  A    between atoms: _579  and  _580
REMARK  239  A    between atoms: _583  and  _585
REMARK  240  A    between atoms: _585  and  _586
REMARK  241  A    between atoms: _585  and  _588
REMARK  242  A    between atoms: _591  and  _593
REMARK  243  A    between atoms: _593  and  _594
REMARK  244  A    between atoms: _596  and  _598
REMARK  245  A    between atoms: _598  and  _599
REMARK  246  A    between atoms: _602  and  _604
REMARK  247  A    between atoms: _604  and  _605
REMARK  248  A    between atoms: _604  and  _607
REMARK                            x       y       z     vdW  Elec       q    Type
REMARK                         _______ _______ _______ _____ _____    ______ ____
ROOT
ATOM      1  C   THR A   1      23.661  12.231  35.013  0.00  0.00    +0.241 C 
ATOM      2  O   THR A   1      22.759  11.417  34.807  0.00  0.00    -0.274 OA
ATOM      3  N   VAL A   2      24.717  12.353  34.217  0.00  0.00    -0.298 N 
ATOM      4  H   VAL A   2      25.419  13.097  34.407  0.00  0.00    +0.150 HD
ENDROOT
BRANCH   1   5
ATOM      5  CA  THR A   1      23.594  13.192  36.191  0.00  0.00    +0.172 C 
BRANCH   5   6
ATOM      6  N   THR A   1      22.242  13.694  36.368  0.00  0.00    -0.236 NA
ATOM      7  H   THR A   1      21.649  13.323  37.137  0.00  0.00    +0.142 HD
ENDBRANCH   5   6
BRANCH   5   8
ATOM      8  CB  THR A   1      24.083  12.465  37.453  0.00  0.00    +0.135 C 
ATOM      9  CG2 THR A   1      25.413  11.761  37.181  0.00  0.00    +0.034 C 
BRANCH   8  10
ATOM     10  OG1 THR A   1      24.245  13.417  38.512  0.00  0.00    -0.383 OA
ATOM     11  HG1 THR A   1      24.560  12.952  39.327  0.00  0.00    +0.210 HD
ENDBRANCH   8  10
ENDBRANCH   5   8
ENDBRANCH   1   5
BRANCH   3  12
ATOM     12  CA  VAL A   2      24.906  11.461  33.083  0.00  0.00    +0.137 C 
BRANCH  12  13
ATOM     13  CB  VAL A   2      24.835  12.209  31.730  0.00  0.00    +0.026 C 
ATOM     14  CG2 VAL A   2      23.500  12.952  31.593  0.00  0.00    +0.002 C 
ATOM     15  CG1 VAL A   2      25.002  11.216  30.584  0.00  0.00    +0.002 C 
ENDBRANCH  12  13
BRANCH  12  16
ATOM     16  C   VAL A   2      26.293  10.846  33.243  0.00  0.00    +0.227 C 
ATOM     17  O   VAL A   2      27.304  11.528  33.097  0.00  0.00    -0.286 OA
ENDBRANCH  12  16
ENDBRANCH   3  12
TORSDOF 7
REMARK  Name = ../refined-set-2016/2qmg/2qmg_pocket.pdb
REMARK  248 active torsions:
REMARK  status: ('A' for Active; 'I' for Inactive)
REMARK    1  A    between atoms: _1  and  _3
REMARK    2  A    between atoms: _3  and  _4
REMARK    3  A    between atoms: _3  and  _6
REMARK    4  A    between atoms: _6  and  _7
REMARK    5  A    between atoms: _7  and  _8
REMARK    6  A    between atoms: _8  and  _9
REMARK    7  A    between atoms: _9  and  _10
REMARK    8  A    between atoms: _14  and  _16
REMARK    9  A    between atoms: _16  and  _17
REMARK   10  A    between atoms: _16  and  _19
REMARK   11  A    between atoms: _19  and  _20
REMARK   12  A    between atoms: _22  and  _24
REMARK   13  A    between atoms: _24  and  _25
REMARK   14  A    between atoms: _27  and  _29
REMARK   15  A    between atoms: _29  and  _30
REMARK   16  A    between atoms: _29  and  _32
REMARK   17  A    between atoms: _32  and  _33
REMARK   18  A    between atoms: _33  and  _34
REMARK   19  A    between atoms: _39  and  _41
REMARK   20  A    between atoms: _41  and  _42
REMARK   21  A    between atoms: _44  and  _46
REMARK   22  A    between atoms: _46  and  _47
REMARK   23  A    between atoms: _46  and  _49
REMARK   24  A    between atoms: _49  and  _50
REMARK   25  A    between atoms: _55  and  _56
REMARK   26  A    between atoms: _58  and  _60
REMARK   27  A    between atoms: _60  and  _61
REMARK   28  A    between atoms: _60  and  _63
REMARK   29  A    between atoms: _63  and  _64
REMARK   30  A    between atoms: _67  and  _69
REMARK   31  A    between atoms: _69  and  _70
REMARK   32  A    between atoms: _69  and  _72
REMARK   33  A    between atoms: _75  and  _77
REMARK   34  A    between atoms: _77  and  _78
REMARK   35  A    between atoms: _77  and  _80
REMARK   36  A    between atoms: _80  and  _81
REMARK   37  A    between atoms: _84  and  _86
REMARK   38  A    between atoms: _86  and  _87
REMARK   39  A    between atoms: _86  and  _89
REMARK   40  A    between atoms: _89  and  _90
REMARK   41  A    between atoms: _93  and  _95
REMARK   42  A    between atoms: _95  and  _96
REMARK   43  A    between atoms: _98  and  _100
REMARK   44  A    between atoms: _100  and  _101
REMARK   45  A    between atoms: _100  and  _103
REMARK   46  A    between atoms: _103  and  _104
REMARK   47  A    between atoms: _106  and  _108
REMARK   48  A    between atoms: _108  and  _109
REMARK   49  A    between atoms: _108  and  _111
REMARK   50  A    between atoms: _111  and  _112
REMARK   51  A    between atoms: _114  and  _116
REMARK   52  A    between atoms: _116  and  _117
REMARK   53  A    between atoms: _116  and  _119
REMARK   54  A    between atoms: _119  and  _120
REMARK   55  A    between atoms: _125  and  _127
REMARK   56  A    between atoms: _127  and  _128
REMARK   57  A    between atoms: _127  and  _130
REMARK   58  A    between atoms: _130  and  _131
REMARK   59  A    between atoms: _136  and  _137
REMARK   60  A    between atoms: _139  and  _141
REMARK   61  A    between atoms: _141  and  _142
REMARK   62  A    between atoms: _141  and  _144
REMARK   63  A    between atoms: _148  and  _149
REMARK   64  A    between atoms: _154  and  _156
REMARK   65  A    between atoms: _156  and  _157
REMARK   66  A    between atoms: _156  and  _159
REMARK   67  A    between atoms: _159  and  _160
REMARK   68  A    between atoms: _165  and  _166
REMARK   69  A    between atoms: _168  and  _170
REMARK   70  A    between atoms: _170  and  _171
REMARK   71  A    between atoms: _170  and  _173
REMARK   72  A    between atoms: _173  and  _174
REMARK   73  A    between atoms: _177  and  _179
REMARK   74  A    between atoms: _179  and  _180
REMARK   75  A    between atoms: _179  and  _182
REMARK   76  A    between atoms: _182  and  _183
REMARK   77  A    between atoms: _183  and  _184
REMARK   78  A    between atoms: _189  and  _191
REMARK   79  A    between atoms: _191  and  _192
REMARK   80  A    between atoms: _194  and  _196
REMARK   81  A    between atoms: _196  and  _197
REMARK   82  A    between atoms: _196  and  _199
REMARK   83  A    between atoms: _199  and  _200
REMARK   84  A    between atoms: _200  and  _201
REMARK   85  A    between atoms: _201  and  _202
REMARK   86  A    between atoms: _202  and  _203
REMARK   87  A    between atoms: _207  and  _209
REMARK   88  A    between atoms: _209  and  _210
REMARK   89  A    between atoms: _209  and  _212
REMARK   90  A    between atoms: _212  and  _213
REMARK   91  A    between atoms: _223  and  _225
REMARK   92  A    between atoms: _225  and  _226
REMARK   93  A    between atoms: _225  and  _228
REMARK   94  A    between atoms: _228  and  _229
REMARK   95  A    between atoms: _232  and  _234
REMARK   96  A    between atoms: _234  and  _235
REMARK   97  A    between atoms: _234  and  _237
REMARK   98  A    between atoms: _237  and  _238
REMARK   99  A    between atoms: _238  and  _239
REMARK  100  A    between atoms: _239  and  _240
REMARK  101  A    between atoms: _240  and  _241
REMARK  102  A    between atoms: _245  and  _247
REMARK  103  A    between atoms: _247  and  _248
REMARK  104  A    between atoms: _247  and  _250
REMARK  105  A    between atoms: _250  and  _251
REMARK  106  A    between atoms: _257  and  _259
REMARK  107  A    between atoms: _259  and  _260
REMARK  108  A    between atoms: _259  and  _262
REMARK  109  A    between atoms: _262  and  _263
REMARK  110  A    between atoms: _269  and  _271
REMARK  111  A    between atoms: _271  and  _272
REMARK  112  A    between atoms: _271  and  _274
REMARK  113  A    between atoms: _274  and  _275
REMARK  114  A    between atoms: _278  and  _280
REMARK  115  A    between atoms: _280  and  _281
REMARK  116  A    between atoms: _280  and  _283
REMARK  117  A    between atoms: _283  and  _284
REMARK  118  A    between atoms: _286  and  _288
REMARK  119  A    between atoms: _288  and  _289
REMARK  120  A    between atoms: _288  and  _291
REMARK  121  A    between atoms: _291  and  _292
REMARK  122  A    between atoms: _302  and  _304
REMARK  123  A    between atoms: _304  and  _305
REMARK  124  A    between atoms: _307  and  _309
REMARK  125  A    between atoms: _309  and  _310
REMARK  126  A    between atoms: _309  and  _312
REMARK  127  A    between atoms: _312  and  _313
REMARK  128  A    between atoms: _316  and  _318
REMARK  129  A    between atoms: _318  and  _319
REMARK  130  A    between atoms: _318  and  _321
REMARK  131  A    between atoms: _321  and  _322
REMARK  132  A    between atoms: _325  and  _327
REMARK  133  A    between atoms: _327  and  _328
REMARK  134  A    between atoms: _330  and  _332
REMARK  135  A    between atoms: _332  and  _333
REMARK  136  A    between atoms: _332  and  _335
REMARK  137  A    between atoms: _335  and  _336
REMARK  138  A    between atoms: _339  and  _341
REMARK  139  A    between atoms: _341  and  _342
REMARK  140  A    between atoms: _345  and  _347
REMARK  141  A    between atoms: _347  and  _348
REMARK  142  A    between atoms: _347  and  _350
REMARK  143  A    between atoms: _350  and  _351
REMARK  144  A    between atoms: _354  and  _356
REMARK  145  A    between atoms: _356  and  _357
REMARK  146  A    between atoms: _360  and  _362
REMARK  147  A    between atoms: _362  and  _363
REMARK  148  A    between atoms: _362  and  _365
REMARK  149  A    between atoms: _365  and  _366
REMARK  150  A    between atoms: _366  and  _367
REMARK  151  A    between atoms: _367  and  _368
REMARK  152  A    between atoms: _377  and  _379
REMARK  153  A    between atoms: _379  and  _380
REMARK  154  A    between atoms: _379  and  _382
REMARK  155  A    between atoms: _382  and  _383
REMARK  156  A    between atoms: _386  and  _388
REMARK  157  A    between atoms: _388  and  _389
REMARK  158  A    between atoms: _388  and  _391
REMARK  159  A    between atoms: _391  and  _392
REMARK  160  A    between atoms: _397  and  _398
REMARK  161  A    between atoms: _400  and  _402
REMARK  162  A    between atoms: _402  and  _403
REMARK  163  A    between atoms: _402  and  _405
REMARK  164  A    between atoms: _405  and  _406
REMARK  165  A    between atoms: _411  and  _412
REMARK  166  A    between atoms: _414  and  _416
REMARK  167  A    between atoms: _416  and  _417
REMARK  168  A    between atoms: _416  and  _419
REMARK  169  A    between atoms: _419  and  _420
REMARK  170  A    between atoms: _420  and  _421
REMARK  171  A    between atoms: _421  and  _422
REMARK  172  A    between atoms: _422  and  _423
REMARK  173  A    between atoms: _427  and  _429
REMARK  174  A    between atoms: _429  and  _430
REMARK  175  A    between atoms: _429  and  _432
REMARK  176  A    between atoms: _432  and  _433
REMARK  177  A    between atoms: _436  and  _438
REMARK  178  A    between atoms: _438  and  _439
REMARK  179  A    between atoms: _438  and  _441
REMARK  180  A    between atoms: _444  and  _446
REMARK  181  A    between atoms: _446  and  _447
REMARK  182  A    between atoms: _446  and  _449
REMARK  183  A    between atoms: _449  and  _450
REMARK  184  A    between atoms: _453  and  _455
REMARK  185  A    between atoms: _455  and  _456
REMARK  186  A    between atoms: _455  and  _458
REMARK  187  A    between atoms: _458  and  _459
REMARK  188  A    between atoms: _461  and  _463
REMARK  189  A    between atoms: _463  and  _464
REMARK  190  A    between atoms: _466  and  _468
REMARK  191  A    between atoms: _468  and  _469
REMARK  192  A    between atoms: _468  and  _471
REMARK  193  A    between atoms: _471  and  _472
REMARK  194  A    between atoms: _475  and  _477
REMARK  195  A    between atoms: _477  and  _478
REMARK  196  A    between atoms: _477  and  _480
REMARK  197  A    between atoms: _480  and  _481
REMARK  198  A    between atoms: _484  and  _486
REMARK  199  A    between atoms: _486  and  _487
REMARK  200  A    between atoms: _486  and  _489
REMARK  201  A    between atoms: _489  and  _490
REMARK  202  A    between atoms: _495  and  _497
REMARK  203  A    between atoms: _497  and  _498
REMARK  204  A    between atoms: _497  and  _500
REMARK  205  A    between atoms: _500  and  _501
REMARK  206  A    between atoms: _501  and  _502
REMARK  207  A    between atoms: _502  and  _503
REMARK  208  A    between atoms: _512  and  _514
REMARK  209  A    between atoms: _514  and  _515
REMARK  210  A    between atoms: _514  and  _517
REMARK  211  A    between atoms: _517  and  _518
REMARK  212  A    between atoms: _518  and  _519
REMARK  213  A    between atoms: _519  and  _520
REMARK  214  A    between atoms: _529  and  _531
REMARK  215  A    between atoms: _531  and  _532
REMARK  216  A    between atoms: _531  and  _534
REMARK  217  A    between atoms: _534  and  _535
REMARK  218  A    between atoms: _537  and  _539
REMARK  219  A    between atoms: _539  and  _540
REMARK  220  A    between atoms: _539  and  _542
REMARK  221  A    between atoms: _542  and  _543
REMARK  222  A    between atoms: _543  and  _544
REMARK  223  A    between atoms: _549  and  _551
REMARK  224  A    between atoms: _551  and  _552
REMARK  225  A    between atoms: _551  and  _554
REMARK  226  A    between atoms: _554  and  _555
REMARK  227  A    between atoms: _557  and  _559
REMARK  228  A    between atoms: _559  and  _560
REMARK  229  A    between atoms: _559  and  _562
REMARK  230  A    between atoms: _562  and  _563
REMARK  231  A    between atoms: _565  and  _567
REMARK  232  A    between atoms: _567  and  _568
REMARK  233  A    between atoms: _567  and  _570
REMARK  234  A    between atoms: _570  and  _571
REMARK  235  A    between atoms: _574  and  _576
REMARK  236  A    between atoms: _576  and  _577
REMARK  237  A    between atoms: _576  and  _579
REMARK  238  A    between atoms: _579  and  _580
REMARK  239  A    between atoms: _583  and  _585
REMARK  240  A    between atoms: _585  and  _586
REMARK  241  A    between atoms: _585  and  _588
REMARK  242  A    between atoms: _591  and  _593
REMARK  243  A    between atoms: _593  and  _594
REMARK  244  A    between atoms: _596  and  _598
REMARK  245  A    between atoms: _598  and  _599
REMARK  246  A    between atoms: _602  and  _604
REMARK  247  A    between atoms: _604  and  _605
REMARK  248  A    between atoms: _604  and  _607
REMARK                            x       y       z     vdW  Elec       q    Type
REMARK                         _______ _______ _______ _____ _____    ______ ____
ROOT
ATOM      1  C   ALA A   2      33.144   7.380  29.177  0.00  0.00    +0.241 C 
ATOM      2  N   VAL A   3      33.548   8.601  29.517  0.00  0.00    -0.298 N 
ATOM      3  H   VAL A   3      32.981   9.435  29.264  0.00  0.00    +0.150 HD
ATOM      4  O   ALA A   2      33.769   6.369  29.489  0.00  0.00    -0.273 OA
ENDROOT
BRANCH   1   5
ATOM      5  CA  ALA A   2      31.862   7.259  28.372  0.00  0.00    +0.149 C 
ATOM      6  CB  ALA A   2      32.164   7.519  26.907  0.00  0.00    +0.031 C 
BRANCH   5   9
ATOM      7  C   GLY A   1      30.287   8.107  30.050  0.00  0.00    +0.240 C 
ATOM      8  O   GLY A   1      30.779   7.452  30.965  0.00  0.00    -0.274 OA
ATOM      9  N   ALA A   2      30.751   8.101  28.804  0.00  0.00    -0.297 N 
ATOM     10  H   ALA A   2      30.301   8.726  28.105  0.00  0.00    +0.150 HD
BRANCH   7  11
ATOM     11  CA  GLY A   1      29.100   9.018  30.283  0.00  0.00    +0.169 C 
BRANCH  11  12
ATOM     12  N   GLY A   1      28.705   9.267  31.655  0.00  0.00    -0.236 NA
ATOM     13  H   GLY A   1      29.004  10.151  32.114  0.00  0.00    +0.142 HD
ENDBRANCH  11  12
ENDBRANCH   7  11
ENDBRANCH   5   9
ENDBRANCH   1   5
BRANCH   2  14
ATOM     14  CA  VAL A   3      34.799   8.750  30.250  0.00  0.00    +0.137 C 
BRANCH  14  15
ATOM     15  CB  VAL A   3      35.228  10.238  30.354  0.00  0.00    +0.026 C 
ATOM     16  CG2 VAL A   3      34.201  11.046  31.138  0.00  0.00    +0.002 C 
ATOM     17  CG1 VAL A   3      35.426  10.802  28.940  0.00  0.00    +0.002 C 
ENDBRANCH  14  15
BRANCH  14  18
ATOM     18  C   VAL A   3      34.739   8.088  31.619  0.00  0.00    +0.227 C 
ATOM     19  O   VAL A   3      35.767   7.725  32.175  0.00  0.00    -0.286 OA
ENDBRANCH  14  18
ENDBRANCH   2  14
TORSDOF 7
REMARK  Name = ../refined-set-2016/2qmg/2qmg_pocket.pdb
REMARK  248 active torsions:
REMARK  status: ('A' for Active; 'I' for Inactive)
REMARK    1  A    between atoms: _1  and  _3
REMARK    2  A    between atoms: _3  and  _4
REMARK    3  A    between atoms: _3  and  _6
REMARK    4  A    between atoms: _6  and  _7
REMARK    5  A    between atoms: _7  and  _8
REMARK    6  A    between atoms: _8  and  _9
REMARK    7  A    between atoms: _9  and  _10
REMARK    8  A    between atoms: _14  and  _16
REMARK    9  A    between atoms: _16  and  _17
REMARK   10  A    between atoms: _16  and  _19
REMARK   11  A    between atoms: _19  and  _20
REMARK   12  A    between atoms: _22  and  _24
REMARK   13  A    between atoms: _24  and  _25
REMARK   14  A    between atoms: _27  and  _29
REMARK   15  A    between atoms: _29  and  _30
REMARK   16  A    between atoms: _29  and  _32
REMARK   17  A    between atoms: _32  and  _33
REMARK   18  A    between atoms: _33  and  _34
REMARK   19  A    between atoms: _39  and  _41
REMARK   20  A    between atoms: _41  and  _42
REMARK   21  A    between atoms: _44  and  _46
REMARK   22  A    between atoms: _46  and  _47
REMARK   23  A    between atoms: _46  and  _49
REMARK   24  A    between atoms: _49  and  _50
REMARK   25  A    between atoms: _55  and  _56
REMARK   26  A    between atoms: _58  and  _60
REMARK   27  A    between atoms: _60  and  _61
REMARK   28  A    between atoms: _60  and  _63
REMARK   29  A    between atoms: _63  and  _64
REMARK   30  A    between atoms: _67  and  _69
REMARK   31  A    between atoms: _69  and  _70
REMARK   32  A    between atoms: _69  and  _72
REMARK   33  A    between atoms: _75  and  _77
REMARK   34  A    between atoms: _77  and  _78
REMARK   35  A    between atoms: _77  and  _80
REMARK   36  A    between atoms: _80  and  _81
REMARK   37  A    between atoms: _84  and  _86
REMARK   38  A    between atoms: _86  and  _87
REMARK   39  A    between atoms: _86  and  _89
REMARK   40  A    between atoms: _89  and  _90
REMARK   41  A    between atoms: _93  and  _95
REMARK   42  A    between atoms: _95  and  _96
REMARK   43  A    between atoms: _98  and  _100
REMARK   44  A    between atoms: _100  and  _101
REMARK   45  A    between atoms: _100  and  _103
REMARK   46  A    between atoms: _103  and  _104
REMARK   47  A    between atoms: _106  and  _108
REMARK   48  A    between atoms: _108  and  _109
REMARK   49  A    between atoms: _108  and  _111
REMARK   50  A    between atoms: _111  and  _112
REMARK   51  A    between atoms: _114  and  _116
REMARK   52  A    between atoms: _116  and  _117
REMARK   53  A    between atoms: _116  and  _119
REMARK   54  A    between atoms: _119  and  _120
REMARK   55  A    between atoms: _125  and  _127
REMARK   56  A    between atoms: _127  and  _128
REMARK   57  A    between atoms: _127  and  _130
REMARK   58  A    between atoms: _130  and  _131
REMARK   59  A    between atoms: _136  and  _137
REMARK   60  A    between atoms: _139  and  _141
REMARK   61  A    between atoms: _141  and  _142
REMARK   62  A    between atoms: _141  and  _144
REMARK   63  A    between atoms: _148  and  _149
REMARK   64  A    between atoms: _154  and  _156
REMARK   65  A    between atoms: _156  and  _157
REMARK   66  A    between atoms: _156  and  _159
REMARK   67  A    between atoms: _159  and  _160
REMARK   68  A    between atoms: _165  and  _166
REMARK   69  A    between atoms: _168  and  _170
REMARK   70  A    between atoms: _170  and  _171
REMARK   71  A    between atoms: _170  and  _173
REMARK   72  A    between atoms: _173  and  _174
REMARK   73  A    between atoms: _177  and  _179
REMARK   74  A    between atoms: _179  and  _180
REMARK   75  A    between atoms: _179  and  _182
REMARK   76  A    between atoms: _182  and  _183
REMARK   77  A    between atoms: _183  and  _184
REMARK   78  A    between atoms: _189  and  _191
REMARK   79  A    between atoms: _191  and  _192
REMARK   80  A    between atoms: _194  and  _196
REMARK   81  A    between atoms: _196  and  _197
REMARK   82  A    between atoms: _196  and  _199
REMARK   83  A    between atoms: _199  and  _200
REMARK   84  A    between atoms: _200  and  _201
REMARK   85  A    between atoms: _201  and  _202
REMARK   86  A    between atoms: _202  and  _203
REMARK   87  A    between atoms: _207  and  _209
REMARK   88  A    between atoms: _209  and  _210
REMARK   89  A    between atoms: _209  and  _212
REMARK   90  A    between atoms: _212  and  _213
REMARK   91  A    between atoms: _223  and  _225
REMARK   92  A    between atoms: _225  and  _226
REMARK   93  A    between atoms: _225  and  _228
REMARK   94  A    between atoms: _228  and  _229
REMARK   95  A    between atoms: _232  and  _234
REMARK   96  A    between atoms: _234  and  _235
REMARK   97  A    between atoms: _234  and  _237
REMARK   98  A    between atoms: _237  and  _238
REMARK   99  A    between atoms: _238  and  _239
REMARK  100  A    between atoms: _239  and  _240
REMARK  101  A    between atoms: _240  and  _241
REMARK  102  A    between atoms: _245  and  _247
REMARK  103  A    between atoms: _247  and  _248
REMARK  104  A    between atoms: _247  and  _250
REMARK  105  A    between atoms: _250  and  _251
REMARK  106  A    between atoms: _257  and  _259
REMARK  107  A    between atoms: _259  and  _260
REMARK  108  A    between atoms: _259  and  _262
REMARK  109  A    between atoms: _262  and  _263
REMARK  110  A    between atoms: _269  and  _271
REMARK  111  A    between atoms: _271  and  _272
REMARK  112  A    between atoms: _271  and  _274
REMARK  113  A    between atoms: _274  and  _275
REMARK  114  A    between atoms: _278  and  _280
REMARK  115  A    between atoms: _280  and  _281
REMARK  116  A    between atoms: _280  and  _283
REMARK  117  A    between atoms: _283  and  _284
REMARK  118  A    between atoms: _286  and  _288
REMARK  119  A    between atoms: _288  and  _289
REMARK  120  A    between atoms: _288  and  _291
REMARK  121  A    between atoms: _291  and  _292
REMARK  122  A    between atoms: _302  and  _304
REMARK  123  A    between atoms: _304  and  _305
REMARK  124  A    between atoms: _307  and  _309
REMARK  125  A    between atoms: _309  and  _310
REMARK  126  A    between atoms: _309  and  _312
REMARK  127  A    between atoms: _312  and  _313
REMARK  128  A    between atoms: _316  and  _318
REMARK  129  A    between atoms: _318  and  _319
REMARK  130  A    between atoms: _318  and  _321
REMARK  131  A    between atoms: _321  and  _322
REMARK  132  A    between atoms: _325  and  _327
REMARK  133  A    between atoms: _327  and  _328
REMARK  134  A    between atoms: _330  and  _332
REMARK  135  A    between atoms: _332  and  _333
REMARK  136  A    between atoms: _332  and  _335
REMARK  137  A    between atoms: _335  and  _336
REMARK  138  A    between atoms: _339  and  _341
REMARK  139  A    between atoms: _341  and  _342
REMARK  140  A    between atoms: _345  and  _347
REMARK  141  A    between atoms: _347  and  _348
REMARK  142  A    between atoms: _347  and  _350
REMARK  143  A    between atoms: _350  and  _351
REMARK  144  A    between atoms: _354  and  _356
REMARK  145  A    between atoms: _356  and  _357
REMARK  146  A    between atoms: _360  and  _362
REMARK  147  A    between atoms: _362  and  _363
REMARK  148  A    between atoms: _362  and  _365
REMARK  149  A    between atoms: _365  and  _366
REMARK  150  A    between atoms: _366  and  _367
REMARK  151  A    between atoms: _367  and  _368
REMARK  152  A    between atoms: _377  and  _379
REMARK  153  A    between atoms: _379  and  _380
REMARK  154  A    between atoms: _379  and  _382
REMARK  155  A    between atoms: _382  and  _383
REMARK  156  A    between atoms: _386  and  _388
REMARK  157  A    between atoms: _388  and  _389
REMARK  158  A    between atoms: _388  and  _391
REMARK  159  A    between atoms: _391  and  _392
REMARK  160  A    between atoms: _397  and  _398
REMARK  161  A    between atoms: _400  and  _402
REMARK  162  A    between atoms: _402  and  _403
REMARK  163  A    between atoms: _402  and  _405
REMARK  164  A    between atoms: _405  and  _406
REMARK  165  A    between atoms: _411  and  _412
REMARK  166  A    between atoms: _414  and  _416
REMARK  167  A    between atoms: _416  and  _417
REMARK  168  A    between atoms: _416  and  _419
REMARK  169  A    between atoms: _419  and  _420
REMARK  170  A    between atoms: _420  and  _421
REMARK  171  A    between atoms: _421  and  _422
REMARK  172  A    between atoms: _422  and  _423
REMARK  173  A    between atoms: _427  and  _429
REMARK  174  A    between atoms: _429  and  _430
REMARK  175  A    between atoms: _429  and  _432
REMARK  176  A    between atoms: _432  and  _433
REMARK  177  A    between atoms: _436  and  _438
REMARK  178  A    between atoms: _438  and  _439
REMARK  179  A    between atoms: _438  and  _441
REMARK  180  A    between atoms: _444  and  _446
REMARK  181  A    between atoms: _446  and  _447
REMARK  182  A    between atoms: _446  and  _449
REMARK  183  A    between atoms: _449  and  _450
REMARK  184  A    between atoms: _453  and  _455
REMARK  185  A    between atoms: _455  and  _456
REMARK  186  A    between atoms: _455  and  _458
REMARK  187  A    between atoms: _458  and  _459
REMARK  188  A    between atoms: _461  and  _463
REMARK  189  A    between atoms: _463  and  _464
REMARK  190  A    between atoms: _466  and  _468
REMARK  191  A    between atoms: _468  and  _469
REMARK  192  A    between atoms: _468  and  _471
REMARK  193  A    between atoms: _471  and  _472
REMARK  194  A    between atoms: _475  and  _477
REMARK  195  A    between atoms: _477  and  _478
REMARK  196  A    between atoms: _477  and  _480
REMARK  197  A    between atoms: _480  and  _481
REMARK  198  A    between atoms: _484  and  _486
REMARK  199  A    between atoms: _486  and  _487
REMARK  200  A    between atoms: _486  and  _489
REMARK  201  A    between atoms: _489  and  _490
REMARK  202  A    between atoms: _495  and  _497
REMARK  203  A    between atoms: _497  and  _498
REMARK  204  A    between atoms: _497  and  _500
REMARK  205  A    between atoms: _500  and  _501
REMARK  206  A    between atoms: _501  and  _502
REMARK  207  A    between atoms: _502  and  _503
REMARK  208  A    between atoms: _512  and  _514
REMARK  209  A    between atoms: _514  and  _515
REMARK  210  A    between atoms: _514  and  _517
REMARK  211  A    between atoms: _517  and  _518
REMARK  212  A    between atoms: _518  and  _519
REMARK  213  A    between atoms: _519  and  _520
REMARK  214  A    between atoms: _529  and  _531
REMARK  215  A    between atoms: _531  and  _532
REMARK  216  A    between atoms: _531  and  _534
REMARK  217  A    between atoms: _534  and  _535
REMARK  218  A    between atoms: _537  and  _539
REMARK  219  A    between atoms: _539  and  _540
REMARK  220  A    between atoms: _539  and  _542
REMARK  221  A    between atoms: _542  and  _543
REMARK  222  A    between atoms: _543  and  _544
REMARK  223  A    between atoms: _549  and  _551
REMARK  224  A    between atoms: _551  and  _552
REMARK  225  A    between atoms: _551  and  _554
REMARK  226  A    between atoms: _554  and  _555
REMARK  227  A    between atoms: _557  and  _559
REMARK  228  A    between atoms: _559  and  _560
REMARK  229  A    between atoms: _559  and  _562
REMARK  230  A    between atoms: _562  and  _563
REMARK  231  A    between atoms: _565  and  _567
REMARK  232  A    between atoms: _567  and  _568
REMARK  233  A    between atoms: _567  and  _570
REMARK  234  A    between atoms: _570  and  _571
REMARK  235  A    between atoms: _574  and  _576
REMARK  236  A    between atoms: _576  and  _577
REMARK  237  A    between atoms: _576  and  _579
REMARK  238  A    between atoms: _579  and  _580
REMARK  239  A    between atoms: _583  and  _585
REMARK  240  A    between atoms: _585  and  _586
REMARK  241  A    between atoms: _585  and  _588
REMARK  242  A    between atoms: _591  and  _593
REMARK  243  A    between atoms: _593  and  _594
REMARK  244  A    between atoms: _596  and  _598
REMARK  245  A    between atoms: _598  and  _599
REMARK  246  A    between atoms: _602  and  _604
REMARK  247  A    between atoms: _604  and  _605
REMARK  248  A    between atoms: _604  and  _607
REMARK                            x       y       z     vdW  Elec       q    Type
REMARK                         _______ _______ _______ _____ _____    ______ ____
ROOT
ATOM      1  O   HOH     1      32.717  16.722  15.026  0.00  0.00    +0.000 OA
ENDROOT
TORSDOF 0
REMARK  Name = ../refined-set-2016/2qmg/2qmg_pocket.pdb
REMARK  248 active torsions:
REMARK  status: ('A' for Active; 'I' for Inactive)
REMARK    1  A    between atoms: _1  and  _3
REMARK    2  A    between atoms: _3  and  _4
REMARK    3  A    between atoms: _3  and  _6
REMARK    4  A    between atoms: _6  and  _7
REMARK    5  A    between atoms: _7  and  _8
REMARK    6  A    between atoms: _8  and  _9
REMARK    7  A    between atoms: _9  and  _10
REMARK    8  A    between atoms: _14  and  _16
REMARK    9  A    between atoms: _16  and  _17
REMARK   10  A    between atoms: _16  and  _19
REMARK   11  A    between atoms: _19  and  _20
REMARK   12  A    between atoms: _22  and  _24
REMARK   13  A    between atoms: _24  and  _25
REMARK   14  A    between atoms: _27  and  _29
REMARK   15  A    between atoms: _29  and  _30
REMARK   16  A    between atoms: _29  and  _32
REMARK   17  A    between atoms: _32  and  _33
REMARK   18  A    between atoms: _33  and  _34
REMARK   19  A    between atoms: _39  and  _41
REMARK   20  A    between atoms: _41  and  _42
REMARK   21  A    between atoms: _44  and  _46
REMARK   22  A    between atoms: _46  and  _47
REMARK   23  A    between atoms: _46  and  _49
REMARK   24  A    between atoms: _49  and  _50
REMARK   25  A    between atoms: _55  and  _56
REMARK   26  A    between atoms: _58  and  _60
REMARK   27  A    between atoms: _60  and  _61
REMARK   28  A    between atoms: _60  and  _63
REMARK   29  A    between atoms: _63  and  _64
REMARK   30  A    between atoms: _67  and  _69
REMARK   31  A    between atoms: _69  and  _70
REMARK   32  A    between atoms: _69  and  _72
REMARK   33  A    between atoms: _75  and  _77
REMARK   34  A    between atoms: _77  and  _78
REMARK   35  A    between atoms: _77  and  _80
REMARK   36  A    between atoms: _80  and  _81
REMARK   37  A    between atoms: _84  and  _86
REMARK   38  A    between atoms: _86  and  _87
REMARK   39  A    between atoms: _86  and  _89
REMARK   40  A    between atoms: _89  and  _90
REMARK   41  A    between atoms: _93  and  _95
REMARK   42  A    between atoms: _95  and  _96
REMARK   43  A    between atoms: _98  and  _100
REMARK   44  A    between atoms: _100  and  _101
REMARK   45  A    between atoms: _100  and  _103
REMARK   46  A    between atoms: _103  and  _104
REMARK   47  A    between atoms: _106  and  _108
REMARK   48  A    between atoms: _108  and  _109
REMARK   49  A    between atoms: _108  and  _111
REMARK   50  A    between atoms: _111  and  _112
REMARK   51  A    between atoms: _114  and  _116
REMARK   52  A    between atoms: _116  and  _117
REMARK   53  A    between atoms: _116  and  _119
REMARK   54  A    between atoms: _119  and  _120
REMARK   55  A    between atoms: _125  and  _127
REMARK   56  A    between atoms: _127  and  _128
REMARK   57  A    between atoms: _127  and  _130
REMARK   58  A    between atoms: _130  and  _131
REMARK   59  A    between atoms: _136  and  _137
REMARK   60  A    between atoms: _139  and  _141
REMARK   61  A    between atoms: _141  and  _142
REMARK   62  A    between atoms: _141  and  _144
REMARK   63  A    between atoms: _148  and  _149
REMARK   64  A    between atoms: _154  and  _156
REMARK   65  A    between atoms: _156  and  _157
REMARK   66  A    between atoms: _156  and  _159
REMARK   67  A    between atoms: _159  and  _160
REMARK   68  A    between atoms: _165  and  _166
REMARK   69  A    between atoms: _168  and  _170
REMARK   70  A    between atoms: _170  and  _171
REMARK   71  A    between atoms: _170  and  _173
REMARK   72  A    between atoms: _173  and  _174
REMARK   73  A    between atoms: _177  and  _179
REMARK   74  A    between atoms: _179  and  _180
REMARK   75  A    between atoms: _179  and  _182
REMARK   76  A    between atoms: _182  and  _183
REMARK   77  A    between atoms: _183  and  _184
REMARK   78  A    between atoms: _189  and  _191
REMARK   79  A    between atoms: _191  and  _192
REMARK   80  A    between atoms: _194  and  _196
REMARK   81  A    between atoms: _196  and  _197
REMARK   82  A    between atoms: _196  and  _199
REMARK   83  A    between atoms: _199  and  _200
REMARK   84  A    between atoms: _200  and  _201
REMARK   85  A    between atoms: _201  and  _202
REMARK   86  A    between atoms: _202  and  _203
REMARK   87  A    between atoms: _207  and  _209
REMARK   88  A    between atoms: _209  and  _210
REMARK   89  A    between atoms: _209  and  _212
REMARK   90  A    between atoms: _212  and  _213
REMARK   91  A    between atoms: _223  and  _225
REMARK   92  A    between atoms: _225  and  _226
REMARK   93  A    between atoms: _225  and  _228
REMARK   94  A    between atoms: _228  and  _229
REMARK   95  A    between atoms: _232  and  _234
REMARK   96  A    between atoms: _234  and  _235
REMARK   97  A    between atoms: _234  and  _237
REMARK   98  A    between atoms: _237  and  _238
REMARK   99  A    between atoms: _238  and  _239
REMARK  100  A    between atoms: _239  and  _240
REMARK  101  A    between atoms: _240  and  _241
REMARK  102  A    between atoms: _245  and  _247
REMARK  103  A    between atoms: _247  and  _248
REMARK  104  A    between atoms: _247  and  _250
REMARK  105  A    between atoms: _250  and  _251
REMARK  106  A    between atoms: _257  and  _259
REMARK  107  A    between atoms: _259  and  _260
REMARK  108  A    between atoms: _259  and  _262
REMARK  109  A    between atoms: _262  and  _263
REMARK  110  A    between atoms: _269  and  _271
REMARK  111  A    between atoms: _271  and  _272
REMARK  112  A    between atoms: _271  and  _274
REMARK  113  A    between atoms: _274  and  _275
REMARK  114  A    between atoms: _278  and  _280
REMARK  115  A    between atoms: _280  and  _281
REMARK  116  A    between atoms: _280  and  _283
REMARK  117  A    between atoms: _283  and  _284
REMARK  118  A    between atoms: _286  and  _288
REMARK  119  A    between atoms: _288  and  _289
REMARK  120  A    between atoms: _288  and  _291
REMARK  121  A    between atoms: _291  and  _292
REMARK  122  A    between atoms: _302  and  _304
REMARK  123  A    between atoms: _304  and  _305
REMARK  124  A    between atoms: _307  and  _309
REMARK  125  A    between atoms: _309  and  _310
REMARK  126  A    between atoms: _309  and  _312
REMARK  127  A    between atoms: _312  and  _313
REMARK  128  A    between atoms: _316  and  _318
REMARK  129  A    between atoms: _318  and  _319
REMARK  130  A    between atoms: _318  and  _321
REMARK  131  A    between atoms: _321  and  _322
REMARK  132  A    between atoms: _325  and  _327
REMARK  133  A    between atoms: _327  and  _328
REMARK  134  A    between atoms: _330  and  _332
REMARK  135  A    between atoms: _332  and  _333
REMARK  136  A    between atoms: _332  and  _335
REMARK  137  A    between atoms: _335  and  _336
REMARK  138  A    between atoms: _339  and  _341
REMARK  139  A    between atoms: _341  and  _342
REMARK  140  A    between atoms: _345  and  _347
REMARK  141  A    between atoms: _347  and  _348
REMARK  142  A    between atoms: _347  and  _350
REMARK  143  A    between atoms: _350  and  _351
REMARK  144  A    between atoms: _354  and  _356
REMARK  145  A    between atoms: _356  and  _357
REMARK  146  A    between atoms: _360  and  _362
REMARK  147  A    between atoms: _362  and  _363
REMARK  148  A    between atoms: _362  and  _365
REMARK  149  A    between atoms: _365  and  _366
REMARK  150  A    between atoms: _366  and  _367
REMARK  151  A    between atoms: _367  and  _368
REMARK  152  A    between atoms: _377  and  _379
REMARK  153  A    between atoms: _379  and  _380
REMARK  154  A    between atoms: _379  and  _382
REMARK  155  A    between atoms: _382  and  _383
REMARK  156  A    between atoms: _386  and  _388
REMARK  157  A    between atoms: _388  and  _389
REMARK  158  A    between atoms: _388  and  _391
REMARK  159  A    between atoms: _391  and  _392
REMARK  160  A    between atoms: _397  and  _398
REMARK  161  A    between atoms: _400  and  _402
REMARK  162  A    between atoms: _402  and  _403
REMARK  163  A    between atoms: _402  and  _405
REMARK  164  A    between atoms: _405  and  _406
REMARK  165  A    between atoms: _411  and  _412
REMARK  166  A    between atoms: _414  and  _416
REMARK  167  A    between atoms: _416  and  _417
REMARK  168  A    between atoms: _416  and  _419
REMARK  169  A    between atoms: _419  and  _420
REMARK  170  A    between atoms: _420  and  _421
REMARK  171  A    between atoms: _421  and  _422
REMARK  172  A    between atoms: _422  and  _423
REMARK  173  A    between atoms: _427  and  _429
REMARK  174  A    between atoms: _429  and  _430
REMARK  175  A    between atoms: _429  and  _432
REMARK  176  A    between atoms: _432  and  _433
REMARK  177  A    between atoms: _436  and  _438
REMARK  178  A    between atoms: _438  and  _439
REMARK  179  A    between atoms: _438  and  _441
REMARK  180  A    between atoms: _444  and  _446
REMARK  181  A    between atoms: _446  and  _447
REMARK  182  A    between atoms: _446  and  _449
REMARK  183  A    between atoms: _449  and  _450
REMARK  184  A    between atoms: _453  and  _455
REMARK  185  A    between atoms: _455  and  _456
REMARK  186  A    between atoms: _455  and  _458
REMARK  187  A    between atoms: _458  and  _459
REMARK  188  A    between atoms: _461  and  _463
REMARK  189  A    between atoms: _463  and  _464
REMARK  190  A    between atoms: _466  and  _468
REMARK  191  A    between atoms: _468  and  _469
REMARK  192  A    between atoms: _468  and  _471
REMARK  193  A    between atoms: _471  and  _472
REMARK  194  A    between atoms: _475  and  _477
REMARK  195  A    between atoms: _477  and  _478
REMARK  196  A    between atoms: _477  and  _480
REMARK  197  A    between atoms: _480  and  _481
REMARK  198  A    between atoms: _484  and  _486
REMARK  199  A    between atoms: _486  and  _487
REMARK  200  A    between atoms: _486  and  _489
REMARK  201  A    between atoms: _489  and  _490
REMARK  202  A    between atoms: _495  and  _497
REMARK  203  A    between atoms: _497  and  _498
REMARK  204  A    between atoms: _497  and  _500
REMARK  205  A    between atoms: _500  and  _501
REMARK  206  A    between atoms: _501  and  _502
REMARK  207  A    between atoms: _502  and  _503
REMARK  208  A    between atoms: _512  and  _514
REMARK  209  A    between atoms: _514  and  _515
REMARK  210  A    between atoms: _514  and  _517
REMARK  211  A    between atoms: _517  and  _518
REMARK  212  A    between atoms: _518  and  _519
REMARK  213  A    between atoms: _519  and  _520
REMARK  214  A    between atoms: _529  and  _531
REMARK  215  A    between atoms: _531  and  _532
REMARK  216  A    between atoms: _531  and  _534
REMARK  217  A    between atoms: _534  and  _535
REMARK  218  A    between atoms: _537  and  _539
REMARK  219  A    between atoms: _539  and  _540
REMARK  220  A    between atoms: _539  and  _542
REMARK  221  A    between atoms: _542  and  _543
REMARK  222  A    between atoms: _543  and  _544
REMARK  223  A    between atoms: _549  and  _551
REMARK  224  A    between atoms: _551  and  _552
REMARK  225  A    between atoms: _551  and  _554
REMARK  226  A    between atoms: _554  and  _555
REMARK  227  A    between atoms: _557  and  _559
REMARK  228  A    between atoms: _559  and  _560
REMARK  229  A    between atoms: _559  and  _562
REMARK  230  A    between atoms: _562  and  _563
REMARK  231  A    between atoms: _565  and  _567
REMARK  232  A    between atoms: _567  and  _568
REMARK  233  A    between atoms: _567  and  _570
REMARK  234  A    between atoms: _570  and  _571
REMARK  235  A    between atoms: _574  and  _576
REMARK  236  A    between atoms: _576  and  _577
REMARK  237  A    between atoms: _576  and  _579
REMARK  238  A    between atoms: _579  and  _580
REMARK  239  A    between atoms: _583  and  _585
REMARK  240  A    between atoms: _585  and  _586
REMARK  241  A    between atoms: _585  and  _588
REMARK  242  A    between atoms: _591  and  _593
REMARK  243  A    between atoms: _593  and  _594
REMARK  244  A    between atoms: _596  and  _598
REMARK  245  A    between atoms: _598  and  _599
REMARK  246  A    between atoms: _602  and  _604
REMARK  247  A    between atoms: _604  and  _605
REMARK  248  A    between atoms: _604  and  _607
REMARK                            x       y       z     vdW  Elec       q    Type
REMARK                         _______ _______ _______ _____ _____    ______ ____
ROOT
ATOM      1  O   HOH     1      20.652   5.063  30.358  0.00  0.00    +0.000 OA
ENDROOT
TORSDOF 0
REMARK  Name = ../refined-set-2016/2qmg/2qmg_pocket.pdb
REMARK  248 active torsions:
REMARK  status: ('A' for Active; 'I' for Inactive)
REMARK    1  A    between atoms: _1  and  _3
REMARK    2  A    between atoms: _3  and  _4
REMARK    3  A    between atoms: _3  and  _6
REMARK    4  A    between atoms: _6  and  _7
REMARK    5  A    between atoms: _7  and  _8
REMARK    6  A    between atoms: _8  and  _9
REMARK    7  A    between atoms: _9  and  _10
REMARK    8  A    between atoms: _14  and  _16
REMARK    9  A    between atoms: _16  and  _17
REMARK   10  A    between atoms: _16  and  _19
REMARK   11  A    between atoms: _19  and  _20
REMARK   12  A    between atoms: _22  and  _24
REMARK   13  A    between atoms: _24  and  _25
REMARK   14  A    between atoms: _27  and  _29
REMARK   15  A    between atoms: _29  and  _30
REMARK   16  A    between atoms: _29  and  _32
REMARK   17  A    between atoms: _32  and  _33
REMARK   18  A    between atoms: _33  and  _34
REMARK   19  A    between atoms: _39  and  _41
REMARK   20  A    between atoms: _41  and  _42
REMARK   21  A    between atoms: _44  and  _46
REMARK   22  A    between atoms: _46  and  _47
REMARK   23  A    between atoms: _46  and  _49
REMARK   24  A    between atoms: _49  and  _50
REMARK   25  A    between atoms: _55  and  _56
REMARK   26  A    between atoms: _58  and  _60
REMARK   27  A    between atoms: _60  and  _61
REMARK   28  A    between atoms: _60  and  _63
REMARK   29  A    between atoms: _63  and  _64
REMARK   30  A    between atoms: _67  and  _69
REMARK   31  A    between atoms: _69  and  _70
REMARK   32  A    between atoms: _69  and  _72
REMARK   33  A    between atoms: _75  and  _77
REMARK   34  A    between atoms: _77  and  _78
REMARK   35  A    between atoms: _77  and  _80
REMARK   36  A    between atoms: _80  and  _81
REMARK   37  A    between atoms: _84  and  _86
REMARK   38  A    between atoms: _86  and  _87
REMARK   39  A    between atoms: _86  and  _89
REMARK   40  A    between atoms: _89  and  _90
REMARK   41  A    between atoms: _93  and  _95
REMARK   42  A    between atoms: _95  and  _96
REMARK   43  A    between atoms: _98  and  _100
REMARK   44  A    between atoms: _100  and  _101
REMARK   45  A    between atoms: _100  and  _103
REMARK   46  A    between atoms: _103  and  _104
REMARK   47  A    between atoms: _106  and  _108
REMARK   48  A    between atoms: _108  and  _109
REMARK   49  A    between atoms: _108  and  _111
REMARK   50  A    between atoms: _111  and  _112
REMARK   51  A    between atoms: _114  and  _116
REMARK   52  A    between atoms: _116  and  _117
REMARK   53  A    between atoms: _116  and  _119
REMARK   54  A    between atoms: _119  and  _120
REMARK   55  A    between atoms: _125  and  _127
REMARK   56  A    between atoms: _127  and  _128
REMARK   57  A    between atoms: _127  and  _130
REMARK   58  A    between atoms: _130  and  _131
REMARK   59  A    between atoms: _136  and  _137
REMARK   60  A    between atoms: _139  and  _141
REMARK   61  A    between atoms: _141  and  _142
REMARK   62  A    between atoms: _141  and  _144
REMARK   63  A    between atoms: _148  and  _149
REMARK   64  A    between atoms: _154  and  _156
REMARK   65  A    between atoms: _156  and  _157
REMARK   66  A    between atoms: _156  and  _159
REMARK   67  A    between atoms: _159  and  _160
REMARK   68  A    between atoms: _165  and  _166
REMARK   69  A    between atoms: _168  and  _170
REMARK   70  A    between atoms: _170  and  _171
REMARK   71  A    between atoms: _170  and  _173
REMARK   72  A    between atoms: _173  and  _174
REMARK   73  A    between atoms: _177  and  _179
REMARK   74  A    between atoms: _179  and  _180
REMARK   75  A    between atoms: _179  and  _182
REMARK   76  A    between atoms: _182  and  _183
REMARK   77  A    between atoms: _183  and  _184
REMARK   78  A    between atoms: _189  and  _191
REMARK   79  A    between atoms: _191  and  _192
REMARK   80  A    between atoms: _194  and  _196
REMARK   81  A    between atoms: _196  and  _197
REMARK   82  A    between atoms: _196  and  _199
REMARK   83  A    between atoms: _199  and  _200
REMARK   84  A    between atoms: _200  and  _201
REMARK   85  A    between atoms: _201  and  _202
REMARK   86  A    between atoms: _202  and  _203
REMARK   87  A    between atoms: _207  and  _209
REMARK   88  A    between atoms: _209  and  _210
REMARK   89  A    between atoms: _209  and  _212
REMARK   90  A    between atoms: _212  and  _213
REMARK   91  A    between atoms: _223  and  _225
REMARK   92  A    between atoms: _225  and  _226
REMARK   93  A    between atoms: _225  and  _228
REMARK   94  A    between atoms: _228  and  _229
REMARK   95  A    between atoms: _232  and  _234
REMARK   96  A    between atoms: _234  and  _235
REMARK   97  A    between atoms: _234  and  _237
REMARK   98  A    between atoms: _237  and  _238
REMARK   99  A    between atoms: _238  and  _239
REMARK  100  A    between atoms: _239  and  _240
REMARK  101  A    between atoms: _240  and  _241
REMARK  102  A    between atoms: _245  and  _247
REMARK  103  A    between atoms: _247  and  _248
REMARK  104  A    between atoms: _247  and  _250
REMARK  105  A    between atoms: _250  and  _251
REMARK  106  A    between atoms: _257  and  _259
REMARK  107  A    between atoms: _259  and  _260
REMARK  108  A    between atoms: _259  and  _262
REMARK  109  A    between atoms: _262  and  _263
REMARK  110  A    between atoms: _269  and  _271
REMARK  111  A    between atoms: _271  and  _272
REMARK  112  A    between atoms: _271  and  _274
REMARK  113  A    between atoms: _274  and  _275
REMARK  114  A    between atoms: _278  and  _280
REMARK  115  A    between atoms: _280  and  _281
REMARK  116  A    between atoms: _280  and  _283
REMARK  117  A    between atoms: _283  and  _284
REMARK  118  A    between atoms: _286  and  _288
REMARK  119  A    between atoms: _288  and  _289
REMARK  120  A    between atoms: _288  and  _291
REMARK  121  A    between atoms: _291  and  _292
REMARK  122  A    between atoms: _302  and  _304
REMARK  123  A    between atoms: _304  and  _305
REMARK  124  A    between atoms: _307  and  _309
REMARK  125  A    between atoms: _309  and  _310
REMARK  126  A    between atoms: _309  and  _312
REMARK  127  A    between atoms: _312  and  _313
REMARK  128  A    between atoms: _316  and  _318
REMARK  129  A    between atoms: _318  and  _319
REMARK  130  A    between atoms: _318  and  _321
REMARK  131  A    between atoms: _321  and  _322
REMARK  132  A    between atoms: _325  and  _327
REMARK  133  A    between atoms: _327  and  _328
REMARK  134  A    between atoms: _330  and  _332
REMARK  135  A    between atoms: _332  and  _333
REMARK  136  A    between atoms: _332  and  _335
REMARK  137  A    between atoms: _335  and  _336
REMARK  138  A    between atoms: _339  and  _341
REMARK  139  A    between atoms: _341  and  _342
REMARK  140  A    between atoms: _345  and  _347
REMARK  141  A    between atoms: _347  and  _348
REMARK  142  A    between atoms: _347  and  _350
REMARK  143  A    between atoms: _350  and  _351
REMARK  144  A    between atoms: _354  and  _356
REMARK  145  A    between atoms: _356  and  _357
REMARK  146  A    between atoms: _360  and  _362
REMARK  147  A    between atoms: _362  and  _363
REMARK  148  A    between atoms: _362  and  _365
REMARK  149  A    between atoms: _365  and  _366
REMARK  150  A    between atoms: _366  and  _367
REMARK  151  A    between atoms: _367  and  _368
REMARK  152  A    between atoms: _377  and  _379
REMARK  153  A    between atoms: _379  and  _380
REMARK  154  A    between atoms: _379  and  _382
REMARK  155  A    between atoms: _382  and  _383
REMARK  156  A    between atoms: _386  and  _388
REMARK  157  A    between atoms: _388  and  _389
REMARK  158  A    between atoms: _388  and  _391
REMARK  159  A    between atoms: _391  and  _392
REMARK  160  A    between atoms: _397  and  _398
REMARK  161  A    between atoms: _400  and  _402
REMARK  162  A    between atoms: _402  and  _403
REMARK  163  A    between atoms: _402  and  _405
REMARK  164  A    between atoms: _405  and  _406
REMARK  165  A    between atoms: _411  and  _412
REMARK  166  A    between atoms: _414  and  _416
REMARK  167  A    between atoms: _416  and  _417
REMARK  168  A    between atoms: _416  and  _419
REMARK  169  A    between atoms: _419  and  _420
REMARK  170  A    between atoms: _420  and  _421
REMARK  171  A    between atoms: _421  and  _422
REMARK  172  A    between atoms: _422  and  _423
REMARK  173  A    between atoms: _427  and  _429
REMARK  174  A    between atoms: _429  and  _430
REMARK  175  A    between atoms: _429  and  _432
REMARK  176  A    between atoms: _432  and  _433
REMARK  177  A    between atoms: _436  and  _438
REMARK  178  A    between atoms: _438  and  _439
REMARK  179  A    between atoms: _438  and  _441
REMARK  180  A    between atoms: _444  and  _446
REMARK  181  A    between atoms: _446  and  _447
REMARK  182  A    between atoms: _446  and  _449
REMARK  183  A    between atoms: _449  and  _450
REMARK  184  A    between atoms: _453  and  _455
REMARK  185  A    between atoms: _455  and  _456
REMARK  186  A    between atoms: _455  and  _458
REMARK  187  A    between atoms: _458  and  _459
REMARK  188  A    between atoms: _461  and  _463
REMARK  189  A    between atoms: _463  and  _464
REMARK  190  A    between atoms: _466  and  _468
REMARK  191  A    between atoms: _468  and  _469
REMARK  192  A    between atoms: _468  and  _471
REMARK  193  A    between atoms: _471  and  _472
REMARK  194  A    between atoms: _475  and  _477
REMARK  195  A    between atoms: _477  and  _478
REMARK  196  A    between atoms: _477  and  _480
REMARK  197  A    between atoms: _480  and  _481
REMARK  198  A    between atoms: _484  and  _486
REMARK  199  A    between atoms: _486  and  _487
REMARK  200  A    between atoms: _486  and  _489
REMARK  201  A    between atoms: _489  and  _490
REMARK  202  A    between atoms: _495  and  _497
REMARK  203  A    between atoms: _497  and  _498
REMARK  204  A    between atoms: _497  and  _500
REMARK  205  A    between atoms: _500  and  _501
REMARK  206  A    between atoms: _501  and  _502
REMARK  207  A    between atoms: _502  and  _503
REMARK  208  A    between atoms: _512  and  _514
REMARK  209  A    between atoms: _514  and  _515
REMARK  210  A    between atoms: _514  and  _517
REMARK  211  A    between atoms: _517  and  _518
REMARK  212  A    between atoms: _518  and  _519
REMARK  213  A    between atoms: _519  and  _520
REMARK  214  A    between atoms: _529  and  _531
REMARK  215  A    between atoms: _531  and  _532
REMARK  216  A    between atoms: _531  and  _534
REMARK  217  A    between atoms: _534  and  _535
REMARK  218  A    between atoms: _537  and  _539
REMARK  219  A    between atoms: _539  and  _540
REMARK  220  A    between atoms: _539  and  _542
REMARK  221  A    between atoms: _542  and  _543
REMARK  222  A    between atoms: _543  and  _544
REMARK  223  A    between atoms: _549  and  _551
REMARK  224  A    between atoms: _551  and  _552
REMARK  225  A    between atoms: _551  and  _554
REMARK  226  A    between atoms: _554  and  _555
REMARK  227  A    between atoms: _557  and  _559
REMARK  228  A    between atoms: _559  and  _560
REMARK  229  A    between atoms: _559  and  _562
REMARK  230  A    between atoms: _562  and  _563
REMARK  231  A    between atoms: _565  and  _567
REMARK  232  A    between atoms: _567  and  _568
REMARK  233  A    between atoms: _567  and  _570
REMARK  234  A    between atoms: _570  and  _571
REMARK  235  A    between atoms: _574  and  _576
REMARK  236  A    between atoms: _576  and  _577
REMARK  237  A    between atoms: _576  and  _579
REMARK  238  A    between atoms: _579  and  _580
REMARK  239  A    between atoms: _583  and  _585
REMARK  240  A    between atoms: _585  and  _586
REMARK  241  A    between atoms: _585  and  _588
REMARK  242  A    between atoms: _591  and  _593
REMARK  243  A    between atoms: _593  and  _594
REMARK  244  A    between atoms: _596  and  _598
REMARK  245  A    between atoms: _598  and  _599
REMARK  246  A    between atoms: _602  and  _604
REMARK  247  A    between atoms: _604  and  _605
REMARK  248  A    between atoms: _604  and  _607
REMARK                            x       y       z     vdW  Elec       q    Type
REMARK                         _______ _______ _______ _____ _____    ______ ____
ROOT
ATOM      1  O   HOH     1      29.581  14.951  26.633  0.00  0.00    +0.000 OA
ENDROOT
TORSDOF 0
REMARK  Name = ../refined-set-2016/2qmg/2qmg_pocket.pdb
REMARK  248 active torsions:
REMARK  status: ('A' for Active; 'I' for Inactive)
REMARK    1  A    between atoms: _1  and  _3
REMARK    2  A    between atoms: _3  and  _4
REMARK    3  A    between atoms: _3  and  _6
REMARK    4  A    between atoms: _6  and  _7
REMARK    5  A    between atoms: _7  and  _8
REMARK    6  A    between atoms: _8  and  _9
REMARK    7  A    between atoms: _9  and  _10
REMARK    8  A    between atoms: _14  and  _16
REMARK    9  A    between atoms: _16  and  _17
REMARK   10  A    between atoms: _16  and  _19
REMARK   11  A    between atoms: _19  and  _20
REMARK   12  A    between atoms: _22  and  _24
REMARK   13  A    between atoms: _24  and  _25
REMARK   14  A    between atoms: _27  and  _29
REMARK   15  A    between atoms: _29  and  _30
REMARK   16  A    between atoms: _29  and  _32
REMARK   17  A    between atoms: _32  and  _33
REMARK   18  A    between atoms: _33  and  _34
REMARK   19  A    between atoms: _39  and  _41
REMARK   20  A    between atoms: _41  and  _42
REMARK   21  A    between atoms: _44  and  _46
REMARK   22  A    between atoms: _46  and  _47
REMARK   23  A    between atoms: _46  and  _49
REMARK   24  A    between atoms: _49  and  _50
REMARK   25  A    between atoms: _55  and  _56
REMARK   26  A    between atoms: _58  and  _60
REMARK   27  A    between atoms: _60  and  _61
REMARK   28  A    between atoms: _60  and  _63
REMARK   29  A    between atoms: _63  and  _64
REMARK   30  A    between atoms: _67  and  _69
REMARK   31  A    between atoms: _69  and  _70
REMARK   32  A    between atoms: _69  and  _72
REMARK   33  A    between atoms: _75  and  _77
REMARK   34  A    between atoms: _77  and  _78
REMARK   35  A    between atoms: _77  and  _80
REMARK   36  A    between atoms: _80  and  _81
REMARK   37  A    between atoms: _84  and  _86
REMARK   38  A    between atoms: _86  and  _87
REMARK   39  A    between atoms: _86  and  _89
REMARK   40  A    between atoms: _89  and  _90
REMARK   41  A    between atoms: _93  and  _95
REMARK   42  A    between atoms: _95  and  _96
REMARK   43  A    between atoms: _98  and  _100
REMARK   44  A    between atoms: _100  and  _101
REMARK   45  A    between atoms: _100  and  _103
REMARK   46  A    between atoms: _103  and  _104
REMARK   47  A    between atoms: _106  and  _108
REMARK   48  A    between atoms: _108  and  _109
REMARK   49  A    between atoms: _108  and  _111
REMARK   50  A    between atoms: _111  and  _112
REMARK   51  A    between atoms: _114  and  _116
REMARK   52  A    between atoms: _116  and  _117
REMARK   53  A    between atoms: _116  and  _119
REMARK   54  A    between atoms: _119  and  _120
REMARK   55  A    between atoms: _125  and  _127
REMARK   56  A    between atoms: _127  and  _128
REMARK   57  A    between atoms: _127  and  _130
REMARK   58  A    between atoms: _130  and  _131
REMARK   59  A    between atoms: _136  and  _137
REMARK   60  A    between atoms: _139  and  _141
REMARK   61  A    between atoms: _141  and  _142
REMARK   62  A    between atoms: _141  and  _144
REMARK   63  A    between atoms: _148  and  _149
REMARK   64  A    between atoms: _154  and  _156
REMARK   65  A    between atoms: _156  and  _157
REMARK   66  A    between atoms: _156  and  _159
REMARK   67  A    between atoms: _159  and  _160
REMARK   68  A    between atoms: _165  and  _166
REMARK   69  A    between atoms: _168  and  _170
REMARK   70  A    between atoms: _170  and  _171
REMARK   71  A    between atoms: _170  and  _173
REMARK   72  A    between atoms: _173  and  _174
REMARK   73  A    between atoms: _177  and  _179
REMARK   74  A    between atoms: _179  and  _180
REMARK   75  A    between atoms: _179  and  _182
REMARK   76  A    between atoms: _182  and  _183
REMARK   77  A    between atoms: _183  and  _184
REMARK   78  A    between atoms: _189  and  _191
REMARK   79  A    between atoms: _191  and  _192
REMARK   80  A    between atoms: _194  and  _196
REMARK   81  A    between atoms: _196  and  _197
REMARK   82  A    between atoms: _196  and  _199
REMARK   83  A    between atoms: _199  and  _200
REMARK   84  A    between atoms: _200  and  _201
REMARK   85  A    between atoms: _201  and  _202
REMARK   86  A    between atoms: _202  and  _203
REMARK   87  A    between atoms: _207  and  _209
REMARK   88  A    between atoms: _209  and  _210
REMARK   89  A    between atoms: _209  and  _212
REMARK   90  A    between atoms: _212  and  _213
REMARK   91  A    between atoms: _223  and  _225
REMARK   92  A    between atoms: _225  and  _226
REMARK   93  A    between atoms: _225  and  _228
REMARK   94  A    between atoms: _228  and  _229
REMARK   95  A    between atoms: _232  and  _234
REMARK   96  A    between atoms: _234  and  _235
REMARK   97  A    between atoms: _234  and  _237
REMARK   98  A    between atoms: _237  and  _238
REMARK   99  A    between atoms: _238  and  _239
REMARK  100  A    between atoms: _239  and  _240
REMARK  101  A    between atoms: _240  and  _241
REMARK  102  A    between atoms: _245  and  _247
REMARK  103  A    between atoms: _247  and  _248
REMARK  104  A    between atoms: _247  and  _250
REMARK  105  A    between atoms: _250  and  _251
REMARK  106  A    between atoms: _257  and  _259
REMARK  107  A    between atoms: _259  and  _260
REMARK  108  A    between atoms: _259  and  _262
REMARK  109  A    between atoms: _262  and  _263
REMARK  110  A    between atoms: _269  and  _271
REMARK  111  A    between atoms: _271  and  _272
REMARK  112  A    between atoms: _271  and  _274
REMARK  113  A    between atoms: _274  and  _275
REMARK  114  A    between atoms: _278  and  _280
REMARK  115  A    between atoms: _280  and  _281
REMARK  116  A    between atoms: _280  and  _283
REMARK  117  A    between atoms: _283  and  _284
REMARK  118  A    between atoms: _286  and  _288
REMARK  119  A    between atoms: _288  and  _289
REMARK  120  A    between atoms: _288  and  _291
REMARK  121  A    between atoms: _291  and  _292
REMARK  122  A    between atoms: _302  and  _304
REMARK  123  A    between atoms: _304  and  _305
REMARK  124  A    between atoms: _307  and  _309
REMARK  125  A    between atoms: _309  and  _310
REMARK  126  A    between atoms: _309  and  _312
REMARK  127  A    between atoms: _312  and  _313
REMARK  128  A    between atoms: _316  and  _318
REMARK  129  A    between atoms: _318  and  _319
REMARK  130  A    between atoms: _318  and  _321
REMARK  131  A    between atoms: _321  and  _322
REMARK  132  A    between atoms: _325  and  _327
REMARK  133  A    between atoms: _327  and  _328
REMARK  134  A    between atoms: _330  and  _332
REMARK  135  A    between atoms: _332  and  _333
REMARK  136  A    between atoms: _332  and  _335
REMARK  137  A    between atoms: _335  and  _336
REMARK  138  A    between atoms: _339  and  _341
REMARK  139  A    between atoms: _341  and  _342
REMARK  140  A    between atoms: _345  and  _347
REMARK  141  A    between atoms: _347  and  _348
REMARK  142  A    between atoms: _347  and  _350
REMARK  143  A    between atoms: _350  and  _351
REMARK  144  A    between atoms: _354  and  _356
REMARK  145  A    between atoms: _356  and  _357
REMARK  146  A    between atoms: _360  and  _362
REMARK  147  A    between atoms: _362  and  _363
REMARK  148  A    between atoms: _362  and  _365
REMARK  149  A    between atoms: _365  and  _366
REMARK  150  A    between atoms: _366  and  _367
REMARK  151  A    between atoms: _367  and  _368
REMARK  152  A    between atoms: _377  and  _379
REMARK  153  A    between atoms: _379  and  _380
REMARK  154  A    between atoms: _379  and  _382
REMARK  155  A    between atoms: _382  and  _383
REMARK  156  A    between atoms: _386  and  _388
REMARK  157  A    between atoms: _388  and  _389
REMARK  158  A    between atoms: _388  and  _391
REMARK  159  A    between atoms: _391  and  _392
REMARK  160  A    between atoms: _397  and  _398
REMARK  161  A    between atoms: _400  and  _402
REMARK  162  A    between atoms: _402  and  _403
REMARK  163  A    between atoms: _402  and  _405
REMARK  164  A    between atoms: _405  and  _406
REMARK  165  A    between atoms: _411  and  _412
REMARK  166  A    between atoms: _414  and  _416
REMARK  167  A    between atoms: _416  and  _417
REMARK  168  A    between atoms: _416  and  _419
REMARK  169  A    between atoms: _419  and  _420
REMARK  170  A    between atoms: _420  and  _421
REMARK  171  A    between atoms: _421  and  _422
REMARK  172  A    between atoms: _422  and  _423
REMARK  173  A    between atoms: _427  and  _429
REMARK  174  A    between atoms: _429  and  _430
REMARK  175  A    between atoms: _429  and  _432
REMARK  176  A    between atoms: _432  and  _433
REMARK  177  A    between atoms: _436  and  _438
REMARK  178  A    between atoms: _438  and  _439
REMARK  179  A    between atoms: _438  and  _441
REMARK  180  A    between atoms: _444  and  _446
REMARK  181  A    between atoms: _446  and  _447
REMARK  182  A    between atoms: _446  and  _449
REMARK  183  A    between atoms: _449  and  _450
REMARK  184  A    between atoms: _453  and  _455
REMARK  185  A    between atoms: _455  and  _456
REMARK  186  A    between atoms: _455  and  _458
REMARK  187  A    between atoms: _458  and  _459
REMARK  188  A    between atoms: _461  and  _463
REMARK  189  A    between atoms: _463  and  _464
REMARK  190  A    between atoms: _466  and  _468
REMARK  191  A    between atoms: _468  and  _469
REMARK  192  A    between atoms: _468  and  _471
REMARK  193  A    between atoms: _471  and  _472
REMARK  194  A    between atoms: _475  and  _477
REMARK  195  A    between atoms: _477  and  _478
REMARK  196  A    between atoms: _477  and  _480
REMARK  197  A    between atoms: _480  and  _481
REMARK  198  A    between atoms: _484  and  _486
REMARK  199  A    between atoms: _486  and  _487
REMARK  200  A    between atoms: _486  and  _489
REMARK  201  A    between atoms: _489  and  _490
REMARK  202  A    between atoms: _495  and  _497
REMARK  203  A    between atoms: _497  and  _498
REMARK  204  A    between atoms: _497  and  _500
REMARK  205  A    between atoms: _500  and  _501
REMARK  206  A    between atoms: _501  and  _502
REMARK  207  A    between atoms: _502  and  _503
REMARK  208  A    between atoms: _512  and  _514
REMARK  209  A    between atoms: _514  and  _515
REMARK  210  A    between atoms: _514  and  _517
REMARK  211  A    between atoms: _517  and  _518
REMARK  212  A    between atoms: _518  and  _519
REMARK  213  A    between atoms: _519  and  _520
REMARK  214  A    between atoms: _529  and  _531
REMARK  215  A    between atoms: _531  and  _532
REMARK  216  A    between atoms: _531  and  _534
REMARK  217  A    between atoms: _534  and  _535
REMARK  218  A    between atoms: _537  and  _539
REMARK  219  A    between atoms: _539  and  _540
REMARK  220  A    between atoms: _539  and  _542
REMARK  221  A    between atoms: _542  and  _543
REMARK  222  A    between atoms: _543  and  _544
REMARK  223  A    between atoms: _549  and  _551
REMARK  224  A    between atoms: _551  and  _552
REMARK  225  A    between atoms: _551  and  _554
REMARK  226  A    between atoms: _554  and  _555
REMARK  227  A    between atoms: _557  and  _559
REMARK  228  A    between atoms: _559  and  _560
REMARK  229  A    between atoms: _559  and  _562
REMARK  230  A    between atoms: _562  and  _563
REMARK  231  A    between atoms: _565  and  _567
REMARK  232  A    between atoms: _567  and  _568
REMARK  233  A    between atoms: _567  and  _570
REMARK  234  A    between atoms: _570  and  _571
REMARK  235  A    between atoms: _574  and  _576
REMARK  236  A    between atoms: _576  and  _577
REMARK  237  A    between atoms: _576  and  _579
REMARK  238  A    between atoms: _579  and  _580
REMARK  239  A    between atoms: _583  and  _585
REMARK  240  A    between atoms: _585  and  _586
REMARK  241  A    between atoms: _585  and  _588
REMARK  242  A    between atoms: _591  and  _593
REMARK  243  A    between atoms: _593  and  _594
REMARK  244  A    between atoms: _596  and  _598
REMARK  245  A    between atoms: _598  and  _599
REMARK  246  A    between atoms: _602  and  _604
REMARK  247  A    between atoms: _604  and  _605
REMARK  248  A    between atoms: _604  and  _607
REMARK                            x       y       z     vdW  Elec       q    Type
REMARK                         _______ _______ _______ _____ _____    ______ ____
ROOT
ATOM      1  O   HOH     1      14.896   6.467  22.340  0.00  0.00    +0.000 OA
ENDROOT
TORSDOF 0
REMARK  Name = ../refined-set-2016/2qmg/2qmg_pocket.pdb
REMARK  248 active torsions:
REMARK  status: ('A' for Active; 'I' for Inactive)
REMARK    1  A    between atoms: _1  and  _3
REMARK    2  A    between atoms: _3  and  _4
REMARK    3  A    between atoms: _3  and  _6
REMARK    4  A    between atoms: _6  and  _7
REMARK    5  A    between atoms: _7  and  _8
REMARK    6  A    between atoms: _8  and  _9
REMARK    7  A    between atoms: _9  and  _10
REMARK    8  A    between atoms: _14  and  _16
REMARK    9  A    between atoms: _16  and  _17
REMARK   10  A    between atoms: _16  and  _19
REMARK   11  A    between atoms: _19  and  _20
REMARK   12  A    between atoms: _22  and  _24
REMARK   13  A    between atoms: _24  and  _25
REMARK   14  A    between atoms: _27  and  _29
REMARK   15  A    between atoms: _29  and  _30
REMARK   16  A    between atoms: _29  and  _32
REMARK   17  A    between atoms: _32  and  _33
REMARK   18  A    between atoms: _33  and  _34
REMARK   19  A    between atoms: _39  and  _41
REMARK   20  A    between atoms: _41  and  _42
REMARK   21  A    between atoms: _44  and  _46
REMARK   22  A    between atoms: _46  and  _47
REMARK   23  A    between atoms: _46  and  _49
REMARK   24  A    between atoms: _49  and  _50
REMARK   25  A    between atoms: _55  and  _56
REMARK   26  A    between atoms: _58  and  _60
REMARK   27  A    between atoms: _60  and  _61
REMARK   28  A    between atoms: _60  and  _63
REMARK   29  A    between atoms: _63  and  _64
REMARK   30  A    between atoms: _67  and  _69
REMARK   31  A    between atoms: _69  and  _70
REMARK   32  A    between atoms: _69  and  _72
REMARK   33  A    between atoms: _75  and  _77
REMARK   34  A    between atoms: _77  and  _78
REMARK   35  A    between atoms: _77  and  _80
REMARK   36  A    between atoms: _80  and  _81
REMARK   37  A    between atoms: _84  and  _86
REMARK   38  A    between atoms: _86  and  _87
REMARK   39  A    between atoms: _86  and  _89
REMARK   40  A    between atoms: _89  and  _90
REMARK   41  A    between atoms: _93  and  _95
REMARK   42  A    between atoms: _95  and  _96
REMARK   43  A    between atoms: _98  and  _100
REMARK   44  A    between atoms: _100  and  _101
REMARK   45  A    between atoms: _100  and  _103
REMARK   46  A    between atoms: _103  and  _104
REMARK   47  A    between atoms: _106  and  _108
REMARK   48  A    between atoms: _108  and  _109
REMARK   49  A    between atoms: _108  and  _111
REMARK   50  A    between atoms: _111  and  _112
REMARK   51  A    between atoms: _114  and  _116
REMARK   52  A    between atoms: _116  and  _117
REMARK   53  A    between atoms: _116  and  _119
REMARK   54  A    between atoms: _119  and  _120
REMARK   55  A    between atoms: _125  and  _127
REMARK   56  A    between atoms: _127  and  _128
REMARK   57  A    between atoms: _127  and  _130
REMARK   58  A    between atoms: _130  and  _131
REMARK   59  A    between atoms: _136  and  _137
REMARK   60  A    between atoms: _139  and  _141
REMARK   61  A    between atoms: _141  and  _142
REMARK   62  A    between atoms: _141  and  _144
REMARK   63  A    between atoms: _148  and  _149
REMARK   64  A    between atoms: _154  and  _156
REMARK   65  A    between atoms: _156  and  _157
REMARK   66  A    between atoms: _156  and  _159
REMARK   67  A    between atoms: _159  and  _160
REMARK   68  A    between atoms: _165  and  _166
REMARK   69  A    between atoms: _168  and  _170
REMARK   70  A    between atoms: _170  and  _171
REMARK   71  A    between atoms: _170  and  _173
REMARK   72  A    between atoms: _173  and  _174
REMARK   73  A    between atoms: _177  and  _179
REMARK   74  A    between atoms: _179  and  _180
REMARK   75  A    between atoms: _179  and  _182
REMARK   76  A    between atoms: _182  and  _183
REMARK   77  A    between atoms: _183  and  _184
REMARK   78  A    between atoms: _189  and  _191
REMARK   79  A    between atoms: _191  and  _192
REMARK   80  A    between atoms: _194  and  _196
REMARK   81  A    between atoms: _196  and  _197
REMARK   82  A    between atoms: _196  and  _199
REMARK   83  A    between atoms: _199  and  _200
REMARK   84  A    between atoms: _200  and  _201
REMARK   85  A    between atoms: _201  and  _202
REMARK   86  A    between atoms: _202  and  _203
REMARK   87  A    between atoms: _207  and  _209
REMARK   88  A    between atoms: _209  and  _210
REMARK   89  A    between atoms: _209  and  _212
REMARK   90  A    between atoms: _212  and  _213
REMARK   91  A    between atoms: _223  and  _225
REMARK   92  A    between atoms: _225  and  _226
REMARK   93  A    between atoms: _225  and  _228
REMARK   94  A    between atoms: _228  and  _229
REMARK   95  A    between atoms: _232  and  _234
REMARK   96  A    between atoms: _234  and  _235
REMARK   97  A    between atoms: _234  and  _237
REMARK   98  A    between atoms: _237  and  _238
REMARK   99  A    between atoms: _238  and  _239
REMARK  100  A    between atoms: _239  and  _240
REMARK  101  A    between atoms: _240  and  _241
REMARK  102  A    between atoms: _245  and  _247
REMARK  103  A    between atoms: _247  and  _248
REMARK  104  A    between atoms: _247  and  _250
REMARK  105  A    between atoms: _250  and  _251
REMARK  106  A    between atoms: _257  and  _259
REMARK  107  A    between atoms: _259  and  _260
REMARK  108  A    between atoms: _259  and  _262
REMARK  109  A    between atoms: _262  and  _263
REMARK  110  A    between atoms: _269  and  _271
REMARK  111  A    between atoms: _271  and  _272
REMARK  112  A    between atoms: _271  and  _274
REMARK  113  A    between atoms: _274  and  _275
REMARK  114  A    between atoms: _278  and  _280
REMARK  115  A    between atoms: _280  and  _281
REMARK  116  A    between atoms: _280  and  _283
REMARK  117  A    between atoms: _283  and  _284
REMARK  118  A    between atoms: _286  and  _288
REMARK  119  A    between atoms: _288  and  _289
REMARK  120  A    between atoms: _288  and  _291
REMARK  121  A    between atoms: _291  and  _292
REMARK  122  A    between atoms: _302  and  _304
REMARK  123  A    between atoms: _304  and  _305
REMARK  124  A    between atoms: _307  and  _309
REMARK  125  A    between atoms: _309  and  _310
REMARK  126  A    between atoms: _309  and  _312
REMARK  127  A    between atoms: _312  and  _313
REMARK  128  A    between atoms: _316  and  _318
REMARK  129  A    between atoms: _318  and  _319
REMARK  130  A    between atoms: _318  and  _321
REMARK  131  A    between atoms: _321  and  _322
REMARK  132  A    between atoms: _325  and  _327
REMARK  133  A    between atoms: _327  and  _328
REMARK  134  A    between atoms: _330  and  _332
REMARK  135  A    between atoms: _332  and  _333
REMARK  136  A    between atoms: _332  and  _335
REMARK  137  A    between atoms: _335  and  _336
REMARK  138  A    between atoms: _339  and  _341
REMARK  139  A    between atoms: _341  and  _342
REMARK  140  A    between atoms: _345  and  _347
REMARK  141  A    between atoms: _347  and  _348
REMARK  142  A    between atoms: _347  and  _350
REMARK  143  A    between atoms: _350  and  _351
REMARK  144  A    between atoms: _354  and  _356
REMARK  145  A    between atoms: _356  and  _357
REMARK  146  A    between atoms: _360  and  _362
REMARK  147  A    between atoms: _362  and  _363
REMARK  148  A    between atoms: _362  and  _365
REMARK  149  A    between atoms: _365  and  _366
REMARK  150  A    between atoms: _366  and  _367
REMARK  151  A    between atoms: _367  and  _368
REMARK  152  A    between atoms: _377  and  _379
REMARK  153  A    between atoms: _379  and  _380
REMARK  154  A    between atoms: _379  and  _382
REMARK  155  A    between atoms: _382  and  _383
REMARK  156  A    between atoms: _386  and  _388
REMARK  157  A    between atoms: _388  and  _389
REMARK  158  A    between atoms: _388  and  _391
REMARK  159  A    between atoms: _391  and  _392
REMARK  160  A    between atoms: _397  and  _398
REMARK  161  A    between atoms: _400  and  _402
REMARK  162  A    between atoms: _402  and  _403
REMARK  163  A    between atoms: _402  and  _405
REMARK  164  A    between atoms: _405  and  _406
REMARK  165  A    between atoms: _411  and  _412
REMARK  166  A    between atoms: _414  and  _416
REMARK  167  A    between atoms: _416  and  _417
REMARK  168  A    between atoms: _416  and  _419
REMARK  169  A    between atoms: _419  and  _420
REMARK  170  A    between atoms: _420  and  _421
REMARK  171  A    between atoms: _421  and  _422
REMARK  172  A    between atoms: _422  and  _423
REMARK  173  A    between atoms: _427  and  _429
REMARK  174  A    between atoms: _429  and  _430
REMARK  175  A    between atoms: _429  and  _432
REMARK  176  A    between atoms: _432  and  _433
REMARK  177  A    between atoms: _436  and  _438
REMARK  178  A    between atoms: _438  and  _439
REMARK  179  A    between atoms: _438  and  _441
REMARK  180  A    between atoms: _444  and  _446
REMARK  181  A    between atoms: _446  and  _447
REMARK  182  A    between atoms: _446  and  _449
REMARK  183  A    between atoms: _449  and  _450
REMARK  184  A    between atoms: _453  and  _455
REMARK  185  A    between atoms: _455  and  _456
REMARK  186  A    between atoms: _455  and  _458
REMARK  187  A    between atoms: _458  and  _459
REMARK  188  A    between atoms: _461  and  _463
REMARK  189  A    between atoms: _463  and  _464
REMARK  190  A    between atoms: _466  and  _468
REMARK  191  A    between atoms: _468  and  _469
REMARK  192  A    between atoms: _468  and  _471
REMARK  193  A    between atoms: _471  and  _472
REMARK  194  A    between atoms: _475  and  _477
REMARK  195  A    between atoms: _477  and  _478
REMARK  196  A    between atoms: _477  and  _480
REMARK  197  A    between atoms: _480  and  _481
REMARK  198  A    between atoms: _484  and  _486
REMARK  199  A    between atoms: _486  and  _487
REMARK  200  A    between atoms: _486  and  _489
REMARK  201  A    between atoms: _489  and  _490
REMARK  202  A    between atoms: _495  and  _497
REMARK  203  A    between atoms: _497  and  _498
REMARK  204  A    between atoms: _497  and  _500
REMARK  205  A    between atoms: _500  and  _501
REMARK  206  A    between atoms: _501  and  _502
REMARK  207  A    between atoms: _502  and  _503
REMARK  208  A    between atoms: _512  and  _514
REMARK  209  A    between atoms: _514  and  _515
REMARK  210  A    between atoms: _514  and  _517
REMARK  211  A    between atoms: _517  and  _518
REMARK  212  A    between atoms: _518  and  _519
REMARK  213  A    between atoms: _519  and  _520
REMARK  214  A    between atoms: _529  and  _531
REMARK  215  A    between atoms: _531  and  _532
REMARK  216  A    between atoms: _531  and  _534
REMARK  217  A    between atoms: _534  and  _535
REMARK  218  A    between atoms: _537  and  _539
REMARK  219  A    between atoms: _539  and  _540
REMARK  220  A    between atoms: _539  and  _542
REMARK  221  A    between atoms: _542  and  _543
REMARK  222  A    between atoms: _543  and  _544
REMARK  223  A    between atoms: _549  and  _551
REMARK  224  A    between atoms: _551  and  _552
REMARK  225  A    between atoms: _551  and  _554
REMARK  226  A    between atoms: _554  and  _555
REMARK  227  A    between atoms: _557  and  _559
REMARK  228  A    between atoms: _559  and  _560
REMARK  229  A    between atoms: _559  and  _562
REMARK  230  A    between atoms: _562  and  _563
REMARK  231  A    between atoms: _565  and  _567
REMARK  232  A    between atoms: _567  and  _568
REMARK  233  A    between atoms: _567  and  _570
REMARK  234  A    between atoms: _570  and  _571
REMARK  235  A    between atoms: _574  and  _576
REMARK  236  A    between atoms: _576  and  _577
REMARK  237  A    between atoms: _576  and  _579
REMARK  238  A    between atoms: _579  and  _580
REMARK  239  A    between atoms: _583  and  _585
REMARK  240  A    between atoms: _585  and  _586
REMARK  241  A    between atoms: _585  and  _588
REMARK  242  A    between atoms: _591  and  _593
REMARK  243  A    between atoms: _593  and  _594
REMARK  244  A    between atoms: _596  and  _598
REMARK  245  A    between atoms: _598  and  _599
REMARK  246  A    between atoms: _602  and  _604
REMARK  247  A    between atoms: _604  and  _605
REMARK  248  A    between atoms: _604  and  _607
REMARK                            x       y       z     vdW  Elec       q    Type
REMARK                         _______ _______ _______ _____ _____    ______ ____
ROOT
ATOM      1  O   HOH     1      20.389  12.263  33.193  0.00  0.00    +0.000 OA
ENDROOT
TORSDOF 0
REMARK  Name = ../refined-set-2016/2qmg/2qmg_pocket.pdb
REMARK  248 active torsions:
REMARK  status: ('A' for Active; 'I' for Inactive)
REMARK    1  A    between atoms: _1  and  _3
REMARK    2  A    between atoms: _3  and  _4
REMARK    3  A    between atoms: _3  and  _6
REMARK    4  A    between atoms: _6  and  _7
REMARK    5  A    between atoms: _7  and  _8
REMARK    6  A    between atoms: _8  and  _9
REMARK    7  A    between atoms: _9  and  _10
REMARK    8  A    between atoms: _14  and  _16
REMARK    9  A    between atoms: _16  and  _17
REMARK   10  A    between atoms: _16  and  _19
REMARK   11  A    between atoms: _19  and  _20
REMARK   12  A    between atoms: _22  and  _24
REMARK   13  A    between atoms: _24  and  _25
REMARK   14  A    between atoms: _27  and  _29
REMARK   15  A    between atoms: _29  and  _30
REMARK   16  A    between atoms: _29  and  _32
REMARK   17  A    between atoms: _32  and  _33
REMARK   18  A    between atoms: _33  and  _34
REMARK   19  A    between atoms: _39  and  _41
REMARK   20  A    between atoms: _41  and  _42
REMARK   21  A    between atoms: _44  and  _46
REMARK   22  A    between atoms: _46  and  _47
REMARK   23  A    between atoms: _46  and  _49
REMARK   24  A    between atoms: _49  and  _50
REMARK   25  A    between atoms: _55  and  _56
REMARK   26  A    between atoms: _58  and  _60
REMARK   27  A    between atoms: _60  and  _61
REMARK   28  A    between atoms: _60  and  _63
REMARK   29  A    between atoms: _63  and  _64
REMARK   30  A    between atoms: _67  and  _69
REMARK   31  A    between atoms: _69  and  _70
REMARK   32  A    between atoms: _69  and  _72
REMARK   33  A    between atoms: _75  and  _77
REMARK   34  A    between atoms: _77  and  _78
REMARK   35  A    between atoms: _77  and  _80
REMARK   36  A    between atoms: _80  and  _81
REMARK   37  A    between atoms: _84  and  _86
REMARK   38  A    between atoms: _86  and  _87
REMARK   39  A    between atoms: _86  and  _89
REMARK   40  A    between atoms: _89  and  _90
REMARK   41  A    between atoms: _93  and  _95
REMARK   42  A    between atoms: _95  and  _96
REMARK   43  A    between atoms: _98  and  _100
REMARK   44  A    between atoms: _100  and  _101
REMARK   45  A    between atoms: _100  and  _103
REMARK   46  A    between atoms: _103  and  _104
REMARK   47  A    between atoms: _106  and  _108
REMARK   48  A    between atoms: _108  and  _109
REMARK   49  A    between atoms: _108  and  _111
REMARK   50  A    between atoms: _111  and  _112
REMARK   51  A    between atoms: _114  and  _116
REMARK   52  A    between atoms: _116  and  _117
REMARK   53  A    between atoms: _116  and  _119
REMARK   54  A    between atoms: _119  and  _120
REMARK   55  A    between atoms: _125  and  _127
REMARK   56  A    between atoms: _127  and  _128
REMARK   57  A    between atoms: _127  and  _130
REMARK   58  A    between atoms: _130  and  _131
REMARK   59  A    between atoms: _136  and  _137
REMARK   60  A    between atoms: _139  and  _141
REMARK   61  A    between atoms: _141  and  _142
REMARK   62  A    between atoms: _141  and  _144
REMARK   63  A    between atoms: _148  and  _149
REMARK   64  A    between atoms: _154  and  _156
REMARK   65  A    between atoms: _156  and  _157
REMARK   66  A    between atoms: _156  and  _159
REMARK   67  A    between atoms: _159  and  _160
REMARK   68  A    between atoms: _165  and  _166
REMARK   69  A    between atoms: _168  and  _170
REMARK   70  A    between atoms: _170  and  _171
REMARK   71  A    between atoms: _170  and  _173
REMARK   72  A    between atoms: _173  and  _174
REMARK   73  A    between atoms: _177  and  _179
REMARK   74  A    between atoms: _179  and  _180
REMARK   75  A    between atoms: _179  and  _182
REMARK   76  A    between atoms: _182  and  _183
REMARK   77  A    between atoms: _183  and  _184
REMARK   78  A    between atoms: _189  and  _191
REMARK   79  A    between atoms: _191  and  _192
REMARK   80  A    between atoms: _194  and  _196
REMARK   81  A    between atoms: _196  and  _197
REMARK   82  A    between atoms: _196  and  _199
REMARK   83  A    between atoms: _199  and  _200
REMARK   84  A    between atoms: _200  and  _201
REMARK   85  A    between atoms: _201  and  _202
REMARK   86  A    between atoms: _202  and  _203
REMARK   87  A    between atoms: _207  and  _209
REMARK   88  A    between atoms: _209  and  _210
REMARK   89  A    between atoms: _209  and  _212
REMARK   90  A    between atoms: _212  and  _213
REMARK   91  A    between atoms: _223  and  _225
REMARK   92  A    between atoms: _225  and  _226
REMARK   93  A    between atoms: _225  and  _228
REMARK   94  A    between atoms: _228  and  _229
REMARK   95  A    between atoms: _232  and  _234
REMARK   96  A    between atoms: _234  and  _235
REMARK   97  A    between atoms: _234  and  _237
REMARK   98  A    between atoms: _237  and  _238
REMARK   99  A    between atoms: _238  and  _239
REMARK  100  A    between atoms: _239  and  _240
REMARK  101  A    between atoms: _240  and  _241
REMARK  102  A    between atoms: _245  and  _247
REMARK  103  A    between atoms: _247  and  _248
REMARK  104  A    between atoms: _247  and  _250
REMARK  105  A    between atoms: _250  and  _251
REMARK  106  A    between atoms: _257  and  _259
REMARK  107  A    between atoms: _259  and  _260
REMARK  108  A    between atoms: _259  and  _262
REMARK  109  A    between atoms: _262  and  _263
REMARK  110  A    between atoms: _269  and  _271
REMARK  111  A    between atoms: _271  and  _272
REMARK  112  A    between atoms: _271  and  _274
REMARK  113  A    between atoms: _274  and  _275
REMARK  114  A    between atoms: _278  and  _280
REMARK  115  A    between atoms: _280  and  _281
REMARK  116  A    between atoms: _280  and  _283
REMARK  117  A    between atoms: _283  and  _284
REMARK  118  A    between atoms: _286  and  _288
REMARK  119  A    between atoms: _288  and  _289
REMARK  120  A    between atoms: _288  and  _291
REMARK  121  A    between atoms: _291  and  _292
REMARK  122  A    between atoms: _302  and  _304
REMARK  123  A    between atoms: _304  and  _305
REMARK  124  A    between atoms: _307  and  _309
REMARK  125  A    between atoms: _309  and  _310
REMARK  126  A    between atoms: _309  and  _312
REMARK  127  A    between atoms: _312  and  _313
REMARK  128  A    between atoms: _316  and  _318
REMARK  129  A    between atoms: _318  and  _319
REMARK  130  A    between atoms: _318  and  _321
REMARK  131  A    between atoms: _321  and  _322
REMARK  132  A    between atoms: _325  and  _327
REMARK  133  A    between atoms: _327  and  _328
REMARK  134  A    between atoms: _330  and  _332
REMARK  135  A    between atoms: _332  and  _333
REMARK  136  A    between atoms: _332  and  _335
REMARK  137  A    between atoms: _335  and  _336
REMARK  138  A    between atoms: _339  and  _341
REMARK  139  A    between atoms: _341  and  _342
REMARK  140  A    between atoms: _345  and  _347
REMARK  141  A    between atoms: _347  and  _348
REMARK  142  A    between atoms: _347  and  _350
REMARK  143  A    between atoms: _350  and  _351
REMARK  144  A    between atoms: _354  and  _356
REMARK  145  A    between atoms: _356  and  _357
REMARK  146  A    between atoms: _360  and  _362
REMARK  147  A    between atoms: _362  and  _363
REMARK  148  A    between atoms: _362  and  _365
REMARK  149  A    between atoms: _365  and  _366
REMARK  150  A    between atoms: _366  and  _367
REMARK  151  A    between atoms: _367  and  _368
REMARK  152  A    between atoms: _377  and  _379
REMARK  153  A    between atoms: _379  and  _380
REMARK  154  A    between atoms: _379  and  _382
REMARK  155  A    between atoms: _382  and  _383
REMARK  156  A    between atoms: _386  and  _388
REMARK  157  A    between atoms: _388  and  _389
REMARK  158  A    between atoms: _388  and  _391
REMARK  159  A    between atoms: _391  and  _392
REMARK  160  A    between atoms: _397  and  _398
REMARK  161  A    between atoms: _400  and  _402
REMARK  162  A    between atoms: _402  and  _403
REMARK  163  A    between atoms: _402  and  _405
REMARK  164  A    between atoms: _405  and  _406
REMARK  165  A    between atoms: _411  and  _412
REMARK  166  A    between atoms: _414  and  _416
REMARK  167  A    between atoms: _416  and  _417
REMARK  168  A    between atoms: _416  and  _419
REMARK  169  A    between atoms: _419  and  _420
REMARK  170  A    between atoms: _420  and  _421
REMARK  171  A    between atoms: _421  and  _422
REMARK  172  A    between atoms: _422  and  _423
REMARK  173  A    between atoms: _427  and  _429
REMARK  174  A    between atoms: _429  and  _430
REMARK  175  A    between atoms: _429  and  _432
REMARK  176  A    between atoms: _432  and  _433
REMARK  177  A    between atoms: _436  and  _438
REMARK  178  A    between atoms: _438  and  _439
REMARK  179  A    between atoms: _438  and  _441
REMARK  180  A    between atoms: _444  and  _446
REMARK  181  A    between atoms: _446  and  _447
REMARK  182  A    between atoms: _446  and  _449
REMARK  183  A    between atoms: _449  and  _450
REMARK  184  A    between atoms: _453  and  _455
REMARK  185  A    between atoms: _455  and  _456
REMARK  186  A    between atoms: _455  and  _458
REMARK  187  A    between atoms: _458  and  _459
REMARK  188  A    between atoms: _461  and  _463
REMARK  189  A    between atoms: _463  and  _464
REMARK  190  A    between atoms: _466  and  _468
REMARK  191  A    between atoms: _468  and  _469
REMARK  192  A    between atoms: _468  and  _471
REMARK  193  A    between atoms: _471  and  _472
REMARK  194  A    between atoms: _475  and  _477
REMARK  195  A    between atoms: _477  and  _478
REMARK  196  A    between atoms: _477  and  _480
REMARK  197  A    between atoms: _480  and  _481
REMARK  198  A    between atoms: _484  and  _486
REMARK  199  A    between atoms: _486  and  _487
REMARK  200  A    between atoms: _486  and  _489
REMARK  201  A    between atoms: _489  and  _490
REMARK  202  A    between atoms: _495  and  _497
REMARK  203  A    between atoms: _497  and  _498
REMARK  204  A    between atoms: _497  and  _500
REMARK  205  A    between atoms: _500  and  _501
REMARK  206  A    between atoms: _501  and  _502
REMARK  207  A    between atoms: _502  and  _503
REMARK  208  A    between atoms: _512  and  _514
REMARK  209  A    between atoms: _514  and  _515
REMARK  210  A    between atoms: _514  and  _517
REMARK  211  A    between atoms: _517  and  _518
REMARK  212  A    between atoms: _518  and  _519
REMARK  213  A    between atoms: _519  and  _520
REMARK  214  A    between atoms: _529  and  _531
REMARK  215  A    between atoms: _531  and  _532
REMARK  216  A    between atoms: _531  and  _534
REMARK  217  A    between atoms: _534  and  _535
REMARK  218  A    between atoms: _537  and  _539
REMARK  219  A    between atoms: _539  and  _540
REMARK  220  A    between atoms: _539  and  _542
REMARK  221  A    between atoms: _542  and  _543
REMARK  222  A    between atoms: _543  and  _544
REMARK  223  A    between atoms: _549  and  _551
REMARK  224  A    between atoms: _551  and  _552
REMARK  225  A    between atoms: _551  and  _554
REMARK  226  A    between atoms: _554  and  _555
REMARK  227  A    between atoms: _557  and  _559
REMARK  228  A    between atoms: _559  and  _560
REMARK  229  A    between atoms: _559  and  _562
REMARK  230  A    between atoms: _562  and  _563
REMARK  231  A    between atoms: _565  and  _567
REMARK  232  A    between atoms: _567  and  _568
REMARK  233  A    between atoms: _567  and  _570
REMARK  234  A    between atoms: _570  and  _571
REMARK  235  A    between atoms: _574  and  _576
REMARK  236  A    between atoms: _576  and  _577
REMARK  237  A    between atoms: _576  and  _579
REMARK  238  A    between atoms: _579  and  _580
REMARK  239  A    between atoms: _583  and  _585
REMARK  240  A    between atoms: _585  and  _586
REMARK  241  A    between atoms: _585  and  _588
REMARK  242  A    between atoms: _591  and  _593
REMARK  243  A    between atoms: _593  and  _594
REMARK  244  A    between atoms: _596  and  _598
REMARK  245  A    between atoms: _598  and  _599
REMARK  246  A    between atoms: _602  and  _604
REMARK  247  A    between atoms: _604  and  _605
REMARK  248  A    between atoms: _604  and  _607
REMARK                            x       y       z     vdW  Elec       q    Type
REMARK                         _______ _______ _______ _____ _____    ______ ____
ROOT
ATOM      1  O   HOH     1      21.357  13.978  28.180  0.00  0.00    +0.000 OA
ENDROOT
TORSDOF 0
REMARK  Name = ../refined-set-2016/2qmg/2qmg_pocket.pdb
REMARK  248 active torsions:
REMARK  status: ('A' for Active; 'I' for Inactive)
REMARK    1  A    between atoms: _1  and  _3
REMARK    2  A    between atoms: _3  and  _4
REMARK    3  A    between atoms: _3  and  _6
REMARK    4  A    between atoms: _6  and  _7
REMARK    5  A    between atoms: _7  and  _8
REMARK    6  A    between atoms: _8  and  _9
REMARK    7  A    between atoms: _9  and  _10
REMARK    8  A    between atoms: _14  and  _16
REMARK    9  A    between atoms: _16  and  _17
REMARK   10  A    between atoms: _16  and  _19
REMARK   11  A    between atoms: _19  and  _20
REMARK   12  A    between atoms: _22  and  _24
REMARK   13  A    between atoms: _24  and  _25
REMARK   14  A    between atoms: _27  and  _29
REMARK   15  A    between atoms: _29  and  _30
REMARK   16  A    between atoms: _29  and  _32
REMARK   17  A    between atoms: _32  and  _33
REMARK   18  A    between atoms: _33  and  _34
REMARK   19  A    between atoms: _39  and  _41
REMARK   20  A    between atoms: _41  and  _42
REMARK   21  A    between atoms: _44  and  _46
REMARK   22  A    between atoms: _46  and  _47
REMARK   23  A    between atoms: _46  and  _49
REMARK   24  A    between atoms: _49  and  _50
REMARK   25  A    between atoms: _55  and  _56
REMARK   26  A    between atoms: _58  and  _60
REMARK   27  A    between atoms: _60  and  _61
REMARK   28  A    between atoms: _60  and  _63
REMARK   29  A    between atoms: _63  and  _64
REMARK   30  A    between atoms: _67  and  _69
REMARK   31  A    between atoms: _69  and  _70
REMARK   32  A    between atoms: _69  and  _72
REMARK   33  A    between atoms: _75  and  _77
REMARK   34  A    between atoms: _77  and  _78
REMARK   35  A    between atoms: _77  and  _80
REMARK   36  A    between atoms: _80  and  _81
REMARK   37  A    between atoms: _84  and  _86
REMARK   38  A    between atoms: _86  and  _87
REMARK   39  A    between atoms: _86  and  _89
REMARK   40  A    between atoms: _89  and  _90
REMARK   41  A    between atoms: _93  and  _95
REMARK   42  A    between atoms: _95  and  _96
REMARK   43  A    between atoms: _98  and  _100
REMARK   44  A    between atoms: _100  and  _101
REMARK   45  A    between atoms: _100  and  _103
REMARK   46  A    between atoms: _103  and  _104
REMARK   47  A    between atoms: _106  and  _108
REMARK   48  A    between atoms: _108  and  _109
REMARK   49  A    between atoms: _108  and  _111
REMARK   50  A    between atoms: _111  and  _112
REMARK   51  A    between atoms: _114  and  _116
REMARK   52  A    between atoms: _116  and  _117
REMARK   53  A    between atoms: _116  and  _119
REMARK   54  A    between atoms: _119  and  _120
REMARK   55  A    between atoms: _125  and  _127
REMARK   56  A    between atoms: _127  and  _128
REMARK   57  A    between atoms: _127  and  _130
REMARK   58  A    between atoms: _130  and  _131
REMARK   59  A    between atoms: _136  and  _137
REMARK   60  A    between atoms: _139  and  _141
REMARK   61  A    between atoms: _141  and  _142
REMARK   62  A    between atoms: _141  and  _144
REMARK   63  A    between atoms: _148  and  _149
REMARK   64  A    between atoms: _154  and  _156
REMARK   65  A    between atoms: _156  and  _157
REMARK   66  A    between atoms: _156  and  _159
REMARK   67  A    between atoms: _159  and  _160
REMARK   68  A    between atoms: _165  and  _166
REMARK   69  A    between atoms: _168  and  _170
REMARK   70  A    between atoms: _170  and  _171
REMARK   71  A    between atoms: _170  and  _173
REMARK   72  A    between atoms: _173  and  _174
REMARK   73  A    between atoms: _177  and  _179
REMARK   74  A    between atoms: _179  and  _180
REMARK   75  A    between atoms: _179  and  _182
REMARK   76  A    between atoms: _182  and  _183
REMARK   77  A    between atoms: _183  and  _184
REMARK   78  A    between atoms: _189  and  _191
REMARK   79  A    between atoms: _191  and  _192
REMARK   80  A    between atoms: _194  and  _196
REMARK   81  A    between atoms: _196  and  _197
REMARK   82  A    between atoms: _196  and  _199
REMARK   83  A    between atoms: _199  and  _200
REMARK   84  A    between atoms: _200  and  _201
REMARK   85  A    between atoms: _201  and  _202
REMARK   86  A    between atoms: _202  and  _203
REMARK   87  A    between atoms: _207  and  _209
REMARK   88  A    between atoms: _209  and  _210
REMARK   89  A    between atoms: _209  and  _212
REMARK   90  A    between atoms: _212  and  _213
REMARK   91  A    between atoms: _223  and  _225
REMARK   92  A    between atoms: _225  and  _226
REMARK   93  A    between atoms: _225  and  _228
REMARK   94  A    between atoms: _228  and  _229
REMARK   95  A    between atoms: _232  and  _234
REMARK   96  A    between atoms: _234  and  _235
REMARK   97  A    between atoms: _234  and  _237
REMARK   98  A    between atoms: _237  and  _238
REMARK   99  A    between atoms: _238  and  _239
REMARK  100  A    between atoms: _239  and  _240
REMARK  101  A    between atoms: _240  and  _241
REMARK  102  A    between atoms: _245  and  _247
REMARK  103  A    between atoms: _247  and  _248
REMARK  104  A    between atoms: _247  and  _250
REMARK  105  A    between atoms: _250  and  _251
REMARK  106  A    between atoms: _257  and  _259
REMARK  107  A    between atoms: _259  and  _260
REMARK  108  A    between atoms: _259  and  _262
REMARK  109  A    between atoms: _262  and  _263
REMARK  110  A    between atoms: _269  and  _271
REMARK  111  A    between atoms: _271  and  _272
REMARK  112  A    between atoms: _271  and  _274
REMARK  113  A    between atoms: _274  and  _275
REMARK  114  A    between atoms: _278  and  _280
REMARK  115  A    between atoms: _280  and  _281
REMARK  116  A    between atoms: _280  and  _283
REMARK  117  A    between atoms: _283  and  _284
REMARK  118  A    between atoms: _286  and  _288
REMARK  119  A    between atoms: _288  and  _289
REMARK  120  A    between atoms: _288  and  _291
REMARK  121  A    between atoms: _291  and  _292
REMARK  122  A    between atoms: _302  and  _304
REMARK  123  A    between atoms: _304  and  _305
REMARK  124  A    between atoms: _307  and  _309
REMARK  125  A    between atoms: _309  and  _310
REMARK  126  A    between atoms: _309  and  _312
REMARK  127  A    between atoms: _312  and  _313
REMARK  128  A    between atoms: _316  and  _318
REMARK  129  A    between atoms: _318  and  _319
REMARK  130  A    between atoms: _318  and  _321
REMARK  131  A    between atoms: _321  and  _322
REMARK  132  A    between atoms: _325  and  _327
REMARK  133  A    between atoms: _327  and  _328
REMARK  134  A    between atoms: _330  and  _332
REMARK  135  A    between atoms: _332  and  _333
REMARK  136  A    between atoms: _332  and  _335
REMARK  137  A    between atoms: _335  and  _336
REMARK  138  A    between atoms: _339  and  _341
REMARK  139  A    between atoms: _341  and  _342
REMARK  140  A    between atoms: _345  and  _347
REMARK  141  A    between atoms: _347  and  _348
REMARK  142  A    between atoms: _347  and  _350
REMARK  143  A    between atoms: _350  and  _351
REMARK  144  A    between atoms: _354  and  _356
REMARK  145  A    between atoms: _356  and  _357
REMARK  146  A    between atoms: _360  and  _362
REMARK  147  A    between atoms: _362  and  _363
REMARK  148  A    between atoms: _362  and  _365
REMARK  149  A    between atoms: _365  and  _366
REMARK  150  A    between atoms: _366  and  _367
REMARK  151  A    between atoms: _367  and  _368
REMARK  152  A    between atoms: _377  and  _379
REMARK  153  A    between atoms: _379  and  _380
REMARK  154  A    between atoms: _379  and  _382
REMARK  155  A    between atoms: _382  and  _383
REMARK  156  A    between atoms: _386  and  _388
REMARK  157  A    between atoms: _388  and  _389
REMARK  158  A    between atoms: _388  and  _391
REMARK  159  A    between atoms: _391  and  _392
REMARK  160  A    between atoms: _397  and  _398
REMARK  161  A    between atoms: _400  and  _402
REMARK  162  A    between atoms: _402  and  _403
REMARK  163  A    between atoms: _402  and  _405
REMARK  164  A    between atoms: _405  and  _406
REMARK  165  A    between atoms: _411  and  _412
REMARK  166  A    between atoms: _414  and  _416
REMARK  167  A    between atoms: _416  and  _417
REMARK  168  A    between atoms: _416  and  _419
REMARK  169  A    between atoms: _419  and  _420
REMARK  170  A    between atoms: _420  and  _421
REMARK  171  A    between atoms: _421  and  _422
REMARK  172  A    between atoms: _422  and  _423
REMARK  173  A    between atoms: _427  and  _429
REMARK  174  A    between atoms: _429  and  _430
REMARK  175  A    between atoms: _429  and  _432
REMARK  176  A    between atoms: _432  and  _433
REMARK  177  A    between atoms: _436  and  _438
REMARK  178  A    between atoms: _438  and  _439
REMARK  179  A    between atoms: _438  and  _441
REMARK  180  A    between atoms: _444  and  _446
REMARK  181  A    between atoms: _446  and  _447
REMARK  182  A    between atoms: _446  and  _449
REMARK  183  A    between atoms: _449  and  _450
REMARK  184  A    between atoms: _453  and  _455
REMARK  185  A    between atoms: _455  and  _456
REMARK  186  A    between atoms: _455  and  _458
REMARK  187  A    between atoms: _458  and  _459
REMARK  188  A    between atoms: _461  and  _463
REMARK  189  A    between atoms: _463  and  _464
REMARK  190  A    between atoms: _466  and  _468
REMARK  191  A    between atoms: _468  and  _469
REMARK  192  A    between atoms: _468  and  _471
REMARK  193  A    between atoms: _471  and  _472
REMARK  194  A    between atoms: _475  and  _477
REMARK  195  A    between atoms: _477  and  _478
REMARK  196  A    between atoms: _477  and  _480
REMARK  197  A    between atoms: _480  and  _481
REMARK  198  A    between atoms: _484  and  _486
REMARK  199  A    between atoms: _486  and  _487
REMARK  200  A    between atoms: _486  and  _489
REMARK  201  A    between atoms: _489  and  _490
REMARK  202  A    between atoms: _495  and  _497
REMARK  203  A    between atoms: _497  and  _498
REMARK  204  A    between atoms: _497  and  _500
REMARK  205  A    between atoms: _500  and  _501
REMARK  206  A    between atoms: _501  and  _502
REMARK  207  A    between atoms: _502  and  _503
REMARK  208  A    between atoms: _512  and  _514
REMARK  209  A    between atoms: _514  and  _515
REMARK  210  A    between atoms: _514  and  _517
REMARK  211  A    between atoms: _517  and  _518
REMARK  212  A    between atoms: _518  and  _519
REMARK  213  A    between atoms: _519  and  _520
REMARK  214  A    between atoms: _529  and  _531
REMARK  215  A    between atoms: _531  and  _532
REMARK  216  A    between atoms: _531  and  _534
REMARK  217  A    between atoms: _534  and  _535
REMARK  218  A    between atoms: _537  and  _539
REMARK  219  A    between atoms: _539  and  _540
REMARK  220  A    between atoms: _539  and  _542
REMARK  221  A    between atoms: _542  and  _543
REMARK  222  A    between atoms: _543  and  _544
REMARK  223  A    between atoms: _549  and  _551
REMARK  224  A    between atoms: _551  and  _552
REMARK  225  A    between atoms: _551  and  _554
REMARK  226  A    between atoms: _554  and  _555
REMARK  227  A    between atoms: _557  and  _559
REMARK  228  A    between atoms: _559  and  _560
REMARK  229  A    between atoms: _559  and  _562
REMARK  230  A    between atoms: _562  and  _563
REMARK  231  A    between atoms: _565  and  _567
REMARK  232  A    between atoms: _567  and  _568
REMARK  233  A    between atoms: _567  and  _570
REMARK  234  A    between atoms: _570  and  _571
REMARK  235  A    between atoms: _574  and  _576
REMARK  236  A    between atoms: _576  and  _577
REMARK  237  A    between atoms: _576  and  _579
REMARK  238  A    between atoms: _579  and  _580
REMARK  239  A    between atoms: _583  and  _585
REMARK  240  A    between atoms: _585  and  _586
REMARK  241  A    between atoms: _585  and  _588
REMARK  242  A    between atoms: _591  and  _593
REMARK  243  A    between atoms: _593  and  _594
REMARK  244  A    between atoms: _596  and  _598
REMARK  245  A    between atoms: _598  and  _599
REMARK  246  A    between atoms: _602  and  _604
REMARK  247  A    between atoms: _604  and  _605
REMARK  248  A    between atoms: _604  and  _607
REMARK                            x       y       z     vdW  Elec       q    Type
REMARK                         _______ _______ _______ _____ _____    ______ ____
ROOT
ATOM      1  O   HOH     1      18.257   5.978  19.785  0.00  0.00    +0.000 OA
ENDROOT
TORSDOF 0
REMARK  Name = ../refined-set-2016/2qmg/2qmg_pocket.pdb
REMARK  248 active torsions:
REMARK  status: ('A' for Active; 'I' for Inactive)
REMARK    1  A    between atoms: _1  and  _3
REMARK    2  A    between atoms: _3  and  _4
REMARK    3  A    between atoms: _3  and  _6
REMARK    4  A    between atoms: _6  and  _7
REMARK    5  A    between atoms: _7  and  _8
REMARK    6  A    between atoms: _8  and  _9
REMARK    7  A    between atoms: _9  and  _10
REMARK    8  A    between atoms: _14  and  _16
REMARK    9  A    between atoms: _16  and  _17
REMARK   10  A    between atoms: _16  and  _19
REMARK   11  A    between atoms: _19  and  _20
REMARK   12  A    between atoms: _22  and  _24
REMARK   13  A    between atoms: _24  and  _25
REMARK   14  A    between atoms: _27  and  _29
REMARK   15  A    between atoms: _29  and  _30
REMARK   16  A    between atoms: _29  and  _32
REMARK   17  A    between atoms: _32  and  _33
REMARK   18  A    between atoms: _33  and  _34
REMARK   19  A    between atoms: _39  and  _41
REMARK   20  A    between atoms: _41  and  _42
REMARK   21  A    between atoms: _44  and  _46
REMARK   22  A    between atoms: _46  and  _47
REMARK   23  A    between atoms: _46  and  _49
REMARK   24  A    between atoms: _49  and  _50
REMARK   25  A    between atoms: _55  and  _56
REMARK   26  A    between atoms: _58  and  _60
REMARK   27  A    between atoms: _60  and  _61
REMARK   28  A    between atoms: _60  and  _63
REMARK   29  A    between atoms: _63  and  _64
REMARK   30  A    between atoms: _67  and  _69
REMARK   31  A    between atoms: _69  and  _70
REMARK   32  A    between atoms: _69  and  _72
REMARK   33  A    between atoms: _75  and  _77
REMARK   34  A    between atoms: _77  and  _78
REMARK   35  A    between atoms: _77  and  _80
REMARK   36  A    between atoms: _80  and  _81
REMARK   37  A    between atoms: _84  and  _86
REMARK   38  A    between atoms: _86  and  _87
REMARK   39  A    between atoms: _86  and  _89
REMARK   40  A    between atoms: _89  and  _90
REMARK   41  A    between atoms: _93  and  _95
REMARK   42  A    between atoms: _95  and  _96
REMARK   43  A    between atoms: _98  and  _100
REMARK   44  A    between atoms: _100  and  _101
REMARK   45  A    between atoms: _100  and  _103
REMARK   46  A    between atoms: _103  and  _104
REMARK   47  A    between atoms: _106  and  _108
REMARK   48  A    between atoms: _108  and  _109
REMARK   49  A    between atoms: _108  and  _111
REMARK   50  A    between atoms: _111  and  _112
REMARK   51  A    between atoms: _114  and  _116
REMARK   52  A    between atoms: _116  and  _117
REMARK   53  A    between atoms: _116  and  _119
REMARK   54  A    between atoms: _119  and  _120
REMARK   55  A    between atoms: _125  and  _127
REMARK   56  A    between atoms: _127  and  _128
REMARK   57  A    between atoms: _127  and  _130
REMARK   58  A    between atoms: _130  and  _131
REMARK   59  A    between atoms: _136  and  _137
REMARK   60  A    between atoms: _139  and  _141
REMARK   61  A    between atoms: _141  and  _142
REMARK   62  A    between atoms: _141  and  _144
REMARK   63  A    between atoms: _148  and  _149
REMARK   64  A    between atoms: _154  and  _156
REMARK   65  A    between atoms: _156  and  _157
REMARK   66  A    between atoms: _156  and  _159
REMARK   67  A    between atoms: _159  and  _160
REMARK   68  A    between atoms: _165  and  _166
REMARK   69  A    between atoms: _168  and  _170
REMARK   70  A    between atoms: _170  and  _171
REMARK   71  A    between atoms: _170  and  _173
REMARK   72  A    between atoms: _173  and  _174
REMARK   73  A    between atoms: _177  and  _179
REMARK   74  A    between atoms: _179  and  _180
REMARK   75  A    between atoms: _179  and  _182
REMARK   76  A    between atoms: _182  and  _183
REMARK   77  A    between atoms: _183  and  _184
REMARK   78  A    between atoms: _189  and  _191
REMARK   79  A    between atoms: _191  and  _192
REMARK   80  A    between atoms: _194  and  _196
REMARK   81  A    between atoms: _196  and  _197
REMARK   82  A    between atoms: _196  and  _199
REMARK   83  A    between atoms: _199  and  _200
REMARK   84  A    between atoms: _200  and  _201
REMARK   85  A    between atoms: _201  and  _202
REMARK   86  A    between atoms: _202  and  _203
REMARK   87  A    between atoms: _207  and  _209
REMARK   88  A    between atoms: _209  and  _210
REMARK   89  A    between atoms: _209  and  _212
REMARK   90  A    between atoms: _212  and  _213
REMARK   91  A    between atoms: _223  and  _225
REMARK   92  A    between atoms: _225  and  _226
REMARK   93  A    between atoms: _225  and  _228
REMARK   94  A    between atoms: _228  and  _229
REMARK   95  A    between atoms: _232  and  _234
REMARK   96  A    between atoms: _234  and  _235
REMARK   97  A    between atoms: _234  and  _237
REMARK   98  A    between atoms: _237  and  _238
REMARK   99  A    between atoms: _238  and  _239
REMARK  100  A    between atoms: _239  and  _240
REMARK  101  A    between atoms: _240  and  _241
REMARK  102  A    between atoms: _245  and  _247
REMARK  103  A    between atoms: _247  and  _248
REMARK  104  A    between atoms: _247  and  _250
REMARK  105  A    between atoms: _250  and  _251
REMARK  106  A    between atoms: _257  and  _259
REMARK  107  A    between atoms: _259  and  _260
REMARK  108  A    between atoms: _259  and  _262
REMARK  109  A    between atoms: _262  and  _263
REMARK  110  A    between atoms: _269  and  _271
REMARK  111  A    between atoms: _271  and  _272
REMARK  112  A    between atoms: _271  and  _274
REMARK  113  A    between atoms: _274  and  _275
REMARK  114  A    between atoms: _278  and  _280
REMARK  115  A    between atoms: _280  and  _281
REMARK  116  A    between atoms: _280  and  _283
REMARK  117  A    between atoms: _283  and  _284
REMARK  118  A    between atoms: _286  and  _288
REMARK  119  A    between atoms: _288  and  _289
REMARK  120  A    between atoms: _288  and  _291
REMARK  121  A    between atoms: _291  and  _292
REMARK  122  A    between atoms: _302  and  _304
REMARK  123  A    between atoms: _304  and  _305
REMARK  124  A    between atoms: _307  and  _309
REMARK  125  A    between atoms: _309  and  _310
REMARK  126  A    between atoms: _309  and  _312
REMARK  127  A    between atoms: _312  and  _313
REMARK  128  A    between atoms: _316  and  _318
REMARK  129  A    between atoms: _318  and  _319
REMARK  130  A    between atoms: _318  and  _321
REMARK  131  A    between atoms: _321  and  _322
REMARK  132  A    between atoms: _325  and  _327
REMARK  133  A    between atoms: _327  and  _328
REMARK  134  A    between atoms: _330  and  _332
REMARK  135  A    between atoms: _332  and  _333
REMARK  136  A    between atoms: _332  and  _335
REMARK  137  A    between atoms: _335  and  _336
REMARK  138  A    between atoms: _339  and  _341
REMARK  139  A    between atoms: _341  and  _342
REMARK  140  A    between atoms: _345  and  _347
REMARK  141  A    between atoms: _347  and  _348
REMARK  142  A    between atoms: _347  and  _350
REMARK  143  A    between atoms: _350  and  _351
REMARK  144  A    between atoms: _354  and  _356
REMARK  145  A    between atoms: _356  and  _357
REMARK  146  A    between atoms: _360  and  _362
REMARK  147  A    between atoms: _362  and  _363
REMARK  148  A    between atoms: _362  and  _365
REMARK  149  A    between atoms: _365  and  _366
REMARK  150  A    between atoms: _366  and  _367
REMARK  151  A    between atoms: _367  and  _368
REMARK  152  A    between atoms: _377  and  _379
REMARK  153  A    between atoms: _379  and  _380
REMARK  154  A    between atoms: _379  and  _382
REMARK  155  A    between atoms: _382  and  _383
REMARK  156  A    between atoms: _386  and  _388
REMARK  157  A    between atoms: _388  and  _389
REMARK  158  A    between atoms: _388  and  _391
REMARK  159  A    between atoms: _391  and  _392
REMARK  160  A    between atoms: _397  and  _398
REMARK  161  A    between atoms: _400  and  _402
REMARK  162  A    between atoms: _402  and  _403
REMARK  163  A    between atoms: _402  and  _405
REMARK  164  A    between atoms: _405  and  _406
REMARK  165  A    between atoms: _411  and  _412
REMARK  166  A    between atoms: _414  and  _416
REMARK  167  A    between atoms: _416  and  _417
REMARK  168  A    between atoms: _416  and  _419
REMARK  169  A    between atoms: _419  and  _420
REMARK  170  A    between atoms: _420  and  _421
REMARK  171  A    between atoms: _421  and  _422
REMARK  172  A    between atoms: _422  and  _423
REMARK  173  A    between atoms: _427  and  _429
REMARK  174  A    between atoms: _429  and  _430
REMARK  175  A    between atoms: _429  and  _432
REMARK  176  A    between atoms: _432  and  _433
REMARK  177  A    between atoms: _436  and  _438
REMARK  178  A    between atoms: _438  and  _439
REMARK  179  A    between atoms: _438  and  _441
REMARK  180  A    between atoms: _444  and  _446
REMARK  181  A    between atoms: _446  and  _447
REMARK  182  A    between atoms: _446  and  _449
REMARK  183  A    between atoms: _449  and  _450
REMARK  184  A    between atoms: _453  and  _455
REMARK  185  A    between atoms: _455  and  _456
REMARK  186  A    between atoms: _455  and  _458
REMARK  187  A    between atoms: _458  and  _459
REMARK  188  A    between atoms: _461  and  _463
REMARK  189  A    between atoms: _463  and  _464
REMARK  190  A    between atoms: _466  and  _468
REMARK  191  A    between atoms: _468  and  _469
REMARK  192  A    between atoms: _468  and  _471
REMARK  193  A    between atoms: _471  and  _472
REMARK  194  A    between atoms: _475  and  _477
REMARK  195  A    between atoms: _477  and  _478
REMARK  196  A    between atoms: _477  and  _480
REMARK  197  A    between atoms: _480  and  _481
REMARK  198  A    between atoms: _484  and  _486
REMARK  199  A    between atoms: _486  and  _487
REMARK  200  A    between atoms: _486  and  _489
REMARK  201  A    between atoms: _489  and  _490
REMARK  202  A    between atoms: _495  and  _497
REMARK  203  A    between atoms: _497  and  _498
REMARK  204  A    between atoms: _497  and  _500
REMARK  205  A    between atoms: _500  and  _501
REMARK  206  A    between atoms: _501  and  _502
REMARK  207  A    between atoms: _502  and  _503
REMARK  208  A    between atoms: _512  and  _514
REMARK  209  A    between atoms: _514  and  _515
REMARK  210  A    between atoms: _514  and  _517
REMARK  211  A    between atoms: _517  and  _518
REMARK  212  A    between atoms: _518  and  _519
REMARK  213  A    between atoms: _519  and  _520
REMARK  214  A    between atoms: _529  and  _531
REMARK  215  A    between atoms: _531  and  _532
REMARK  216  A    between atoms: _531  and  _534
REMARK  217  A    between atoms: _534  and  _535
REMARK  218  A    between atoms: _537  and  _539
REMARK  219  A    between atoms: _539  and  _540
REMARK  220  A    between atoms: _539  and  _542
REMARK  221  A    between atoms: _542  and  _543
REMARK  222  A    between atoms: _543  and  _544
REMARK  223  A    between atoms: _549  and  _551
REMARK  224  A    between atoms: _551  and  _552
REMARK  225  A    between atoms: _551  and  _554
REMARK  226  A    between atoms: _554  and  _555
REMARK  227  A    between atoms: _557  and  _559
REMARK  228  A    between atoms: _559  and  _560
REMARK  229  A    between atoms: _559  and  _562
REMARK  230  A    between atoms: _562  and  _563
REMARK  231  A    between atoms: _565  and  _567
REMARK  232  A    between atoms: _567  and  _568
REMARK  233  A    between atoms: _567  and  _570
REMARK  234  A    between atoms: _570  and  _571
REMARK  235  A    between atoms: _574  and  _576
REMARK  236  A    between atoms: _576  and  _577
REMARK  237  A    between atoms: _576  and  _579
REMARK  238  A    between atoms: _579  and  _580
REMARK  239  A    between atoms: _583  and  _585
REMARK  240  A    between atoms: _585  and  _586
REMARK  241  A    between atoms: _585  and  _588
REMARK  242  A    between atoms: _591  and  _593
REMARK  243  A    between atoms: _593  and  _594
REMARK  244  A    between atoms: _596  and  _598
REMARK  245  A    between atoms: _598  and  _599
REMARK  246  A    between atoms: _602  and  _604
REMARK  247  A    between atoms: _604  and  _605
REMARK  248  A    between atoms: _604  and  _607
REMARK                            x       y       z     vdW  Elec       q    Type
REMARK                         _______ _______ _______ _____ _____    ______ ____
ROOT
ATOM      1  O   HOH     1      24.009  13.839  27.850  0.00  0.00    +0.000 OA
ENDROOT
TORSDOF 0
REMARK  Name = ../refined-set-2016/2qmg/2qmg_pocket.pdb
REMARK  248 active torsions:
REMARK  status: ('A' for Active; 'I' for Inactive)
REMARK    1  A    between atoms: _1  and  _3
REMARK    2  A    between atoms: _3  and  _4
REMARK    3  A    between atoms: _3  and  _6
REMARK    4  A    between atoms: _6  and  _7
REMARK    5  A    between atoms: _7  and  _8
REMARK    6  A    between atoms: _8  and  _9
REMARK    7  A    between atoms: _9  and  _10
REMARK    8  A    between atoms: _14  and  _16
REMARK    9  A    between atoms: _16  and  _17
REMARK   10  A    between atoms: _16  and  _19
REMARK   11  A    between atoms: _19  and  _20
REMARK   12  A    between atoms: _22  and  _24
REMARK   13  A    between atoms: _24  and  _25
REMARK   14  A    between atoms: _27  and  _29
REMARK   15  A    between atoms: _29  and  _30
REMARK   16  A    between atoms: _29  and  _32
REMARK   17  A    between atoms: _32  and  _33
REMARK   18  A    between atoms: _33  and  _34
REMARK   19  A    between atoms: _39  and  _41
REMARK   20  A    between atoms: _41  and  _42
REMARK   21  A    between atoms: _44  and  _46
REMARK   22  A    between atoms: _46  and  _47
REMARK   23  A    between atoms: _46  and  _49
REMARK   24  A    between atoms: _49  and  _50
REMARK   25  A    between atoms: _55  and  _56
REMARK   26  A    between atoms: _58  and  _60
REMARK   27  A    between atoms: _60  and  _61
REMARK   28  A    between atoms: _60  and  _63
REMARK   29  A    between atoms: _63  and  _64
REMARK   30  A    between atoms: _67  and  _69
REMARK   31  A    between atoms: _69  and  _70
REMARK   32  A    between atoms: _69  and  _72
REMARK   33  A    between atoms: _75  and  _77
REMARK   34  A    between atoms: _77  and  _78
REMARK   35  A    between atoms: _77  and  _80
REMARK   36  A    between atoms: _80  and  _81
REMARK   37  A    between atoms: _84  and  _86
REMARK   38  A    between atoms: _86  and  _87
REMARK   39  A    between atoms: _86  and  _89
REMARK   40  A    between atoms: _89  and  _90
REMARK   41  A    between atoms: _93  and  _95
REMARK   42  A    between atoms: _95  and  _96
REMARK   43  A    between atoms: _98  and  _100
REMARK   44  A    between atoms: _100  and  _101
REMARK   45  A    between atoms: _100  and  _103
REMARK   46  A    between atoms: _103  and  _104
REMARK   47  A    between atoms: _106  and  _108
REMARK   48  A    between atoms: _108  and  _109
REMARK   49  A    between atoms: _108  and  _111
REMARK   50  A    between atoms: _111  and  _112
REMARK   51  A    between atoms: _114  and  _116
REMARK   52  A    between atoms: _116  and  _117
REMARK   53  A    between atoms: _116  and  _119
REMARK   54  A    between atoms: _119  and  _120
REMARK   55  A    between atoms: _125  and  _127
REMARK   56  A    between atoms: _127  and  _128
REMARK   57  A    between atoms: _127  and  _130
REMARK   58  A    between atoms: _130  and  _131
REMARK   59  A    between atoms: _136  and  _137
REMARK   60  A    between atoms: _139  and  _141
REMARK   61  A    between atoms: _141  and  _142
REMARK   62  A    between atoms: _141  and  _144
REMARK   63  A    between atoms: _148  and  _149
REMARK   64  A    between atoms: _154  and  _156
REMARK   65  A    between atoms: _156  and  _157
REMARK   66  A    between atoms: _156  and  _159
REMARK   67  A    between atoms: _159  and  _160
REMARK   68  A    between atoms: _165  and  _166
REMARK   69  A    between atoms: _168  and  _170
REMARK   70  A    between atoms: _170  and  _171
REMARK   71  A    between atoms: _170  and  _173
REMARK   72  A    between atoms: _173  and  _174
REMARK   73  A    between atoms: _177  and  _179
REMARK   74  A    between atoms: _179  and  _180
REMARK   75  A    between atoms: _179  and  _182
REMARK   76  A    between atoms: _182  and  _183
REMARK   77  A    between atoms: _183  and  _184
REMARK   78  A    between atoms: _189  and  _191
REMARK   79  A    between atoms: _191  and  _192
REMARK   80  A    between atoms: _194  and  _196
REMARK   81  A    between atoms: _196  and  _197
REMARK   82  A    between atoms: _196  and  _199
REMARK   83  A    between atoms: _199  and  _200
REMARK   84  A    between atoms: _200  and  _201
REMARK   85  A    between atoms: _201  and  _202
REMARK   86  A    between atoms: _202  and  _203
REMARK   87  A    between atoms: _207  and  _209
REMARK   88  A    between atoms: _209  and  _210
REMARK   89  A    between atoms: _209  and  _212
REMARK   90  A    between atoms: _212  and  _213
REMARK   91  A    between atoms: _223  and  _225
REMARK   92  A    between atoms: _225  and  _226
REMARK   93  A    between atoms: _225  and  _228
REMARK   94  A    between atoms: _228  and  _229
REMARK   95  A    between atoms: _232  and  _234
REMARK   96  A    between atoms: _234  and  _235
REMARK   97  A    between atoms: _234  and  _237
REMARK   98  A    between atoms: _237  and  _238
REMARK   99  A    between atoms: _238  and  _239
REMARK  100  A    between atoms: _239  and  _240
REMARK  101  A    between atoms: _240  and  _241
REMARK  102  A    between atoms: _245  and  _247
REMARK  103  A    between atoms: _247  and  _248
REMARK  104  A    between atoms: _247  and  _250
REMARK  105  A    between atoms: _250  and  _251
REMARK  106  A    between atoms: _257  and  _259
REMARK  107  A    between atoms: _259  and  _260
REMARK  108  A    between atoms: _259  and  _262
REMARK  109  A    between atoms: _262  and  _263
REMARK  110  A    between atoms: _269  and  _271
REMARK  111  A    between atoms: _271  and  _272
REMARK  112  A    between atoms: _271  and  _274
REMARK  113  A    between atoms: _274  and  _275
REMARK  114  A    between atoms: _278  and  _280
REMARK  115  A    between atoms: _280  and  _281
REMARK  116  A    between atoms: _280  and  _283
REMARK  117  A    between atoms: _283  and  _284
REMARK  118  A    between atoms: _286  and  _288
REMARK  119  A    between atoms: _288  and  _289
REMARK  120  A    between atoms: _288  and  _291
REMARK  121  A    between atoms: _291  and  _292
REMARK  122  A    between atoms: _302  and  _304
REMARK  123  A    between atoms: _304  and  _305
REMARK  124  A    between atoms: _307  and  _309
REMARK  125  A    between atoms: _309  and  _310
REMARK  126  A    between atoms: _309  and  _312
REMARK  127  A    between atoms: _312  and  _313
REMARK  128  A    between atoms: _316  and  _318
REMARK  129  A    between atoms: _318  and  _319
REMARK  130  A    between atoms: _318  and  _321
REMARK  131  A    between atoms: _321  and  _322
REMARK  132  A    between atoms: _325  and  _327
REMARK  133  A    between atoms: _327  and  _328
REMARK  134  A    between atoms: _330  and  _332
REMARK  135  A    between atoms: _332  and  _333
REMARK  136  A    between atoms: _332  and  _335
REMARK  137  A    between atoms: _335  and  _336
REMARK  138  A    between atoms: _339  and  _341
REMARK  139  A    between atoms: _341  and  _342
REMARK  140  A    between atoms: _345  and  _347
REMARK  141  A    between atoms: _347  and  _348
REMARK  142  A    between atoms: _347  and  _350
REMARK  143  A    between atoms: _350  and  _351
REMARK  144  A    between atoms: _354  and  _356
REMARK  145  A    between atoms: _356  and  _357
REMARK  146  A    between atoms: _360  and  _362
REMARK  147  A    between atoms: _362  and  _363
REMARK  148  A    between atoms: _362  and  _365
REMARK  149  A    between atoms: _365  and  _366
REMARK  150  A    between atoms: _366  and  _367
REMARK  151  A    between atoms: _367  and  _368
REMARK  152  A    between atoms: _377  and  _379
REMARK  153  A    between atoms: _379  and  _380
REMARK  154  A    between atoms: _379  and  _382
REMARK  155  A    between atoms: _382  and  _383
REMARK  156  A    between atoms: _386  and  _388
REMARK  157  A    between atoms: _388  and  _389
REMARK  158  A    between atoms: _388  and  _391
REMARK  159  A    between atoms: _391  and  _392
REMARK  160  A    between atoms: _397  and  _398
REMARK  161  A    between atoms: _400  and  _402
REMARK  162  A    between atoms: _402  and  _403
REMARK  163  A    between atoms: _402  and  _405
REMARK  164  A    between atoms: _405  and  _406
REMARK  165  A    between atoms: _411  and  _412
REMARK  166  A    between atoms: _414  and  _416
REMARK  167  A    between atoms: _416  and  _417
REMARK  168  A    between atoms: _416  and  _419
REMARK  169  A    between atoms: _419  and  _420
REMARK  170  A    between atoms: _420  and  _421
REMARK  171  A    between atoms: _421  and  _422
REMARK  172  A    between atoms: _422  and  _423
REMARK  173  A    between atoms: _427  and  _429
REMARK  174  A    between atoms: _429  and  _430
REMARK  175  A    between atoms: _429  and  _432
REMARK  176  A    between atoms: _432  and  _433
REMARK  177  A    between atoms: _436  and  _438
REMARK  178  A    between atoms: _438  and  _439
REMARK  179  A    between atoms: _438  and  _441
REMARK  180  A    between atoms: _444  and  _446
REMARK  181  A    between atoms: _446  and  _447
REMARK  182  A    between atoms: _446  and  _449
REMARK  183  A    between atoms: _449  and  _450
REMARK  184  A    between atoms: _453  and  _455
REMARK  185  A    between atoms: _455  and  _456
REMARK  186  A    between atoms: _455  and  _458
REMARK  187  A    between atoms: _458  and  _459
REMARK  188  A    between atoms: _461  and  _463
REMARK  189  A    between atoms: _463  and  _464
REMARK  190  A    between atoms: _466  and  _468
REMARK  191  A    between atoms: _468  and  _469
REMARK  192  A    between atoms: _468  and  _471
REMARK  193  A    between atoms: _471  and  _472
REMARK  194  A    between atoms: _475  and  _477
REMARK  195  A    between atoms: _477  and  _478
REMARK  196  A    between atoms: _477  and  _480
REMARK  197  A    between atoms: _480  and  _481
REMARK  198  A    between atoms: _484  and  _486
REMARK  199  A    between atoms: _486  and  _487
REMARK  200  A    between atoms: _486  and  _489
REMARK  201  A    between atoms: _489  and  _490
REMARK  202  A    between atoms: _495  and  _497
REMARK  203  A    between atoms: _497  and  _498
REMARK  204  A    between atoms: _497  and  _500
REMARK  205  A    between atoms: _500  and  _501
REMARK  206  A    between atoms: _501  and  _502
REMARK  207  A    between atoms: _502  and  _503
REMARK  208  A    between atoms: _512  and  _514
REMARK  209  A    between atoms: _514  and  _515
REMARK  210  A    between atoms: _514  and  _517
REMARK  211  A    between atoms: _517  and  _518
REMARK  212  A    between atoms: _518  and  _519
REMARK  213  A    between atoms: _519  and  _520
REMARK  214  A    between atoms: _529  and  _531
REMARK  215  A    between atoms: _531  and  _532
REMARK  216  A    between atoms: _531  and  _534
REMARK  217  A    between atoms: _534  and  _535
REMARK  218  A    between atoms: _537  and  _539
REMARK  219  A    between atoms: _539  and  _540
REMARK  220  A    between atoms: _539  and  _542
REMARK  221  A    between atoms: _542  and  _543
REMARK  222  A    between atoms: _543  and  _544
REMARK  223  A    between atoms: _549  and  _551
REMARK  224  A    between atoms: _551  and  _552
REMARK  225  A    between atoms: _551  and  _554
REMARK  226  A    between atoms: _554  and  _555
REMARK  227  A    between atoms: _557  and  _559
REMARK  228  A    between atoms: _559  and  _560
REMARK  229  A    between atoms: _559  and  _562
REMARK  230  A    between atoms: _562  and  _563
REMARK  231  A    between atoms: _565  and  _567
REMARK  232  A    between atoms: _567  and  _568
REMARK  233  A    between atoms: _567  and  _570
REMARK  234  A    between atoms: _570  and  _571
REMARK  235  A    between atoms: _574  and  _576
REMARK  236  A    between atoms: _576  and  _577
REMARK  237  A    between atoms: _576  and  _579
REMARK  238  A    between atoms: _579  and  _580
REMARK  239  A    between atoms: _583  and  _585
REMARK  240  A    between atoms: _585  and  _586
REMARK  241  A    between atoms: _585  and  _588
REMARK  242  A    between atoms: _591  and  _593
REMARK  243  A    between atoms: _593  and  _594
REMARK  244  A    between atoms: _596  and  _598
REMARK  245  A    between atoms: _598  and  _599
REMARK  246  A    between atoms: _602  and  _604
REMARK  247  A    between atoms: _604  and  _605
REMARK  248  A    between atoms: _604  and  _607
REMARK                            x       y       z     vdW  Elec       q    Type
REMARK                         _______ _______ _______ _____ _____    ______ ____
ROOT
ATOM      1  O   HOH     1      29.387   4.961  22.611  0.00  0.00    +0.000 OA
ENDROOT
TORSDOF 0
REMARK  Name = ../refined-set-2016/2qmg/2qmg_pocket.pdb
REMARK  248 active torsions:
REMARK  status: ('A' for Active; 'I' for Inactive)
REMARK    1  A    between atoms: _1  and  _3
REMARK    2  A    between atoms: _3  and  _4
REMARK    3  A    between atoms: _3  and  _6
REMARK    4  A    between atoms: _6  and  _7
REMARK    5  A    between atoms: _7  and  _8
REMARK    6  A    between atoms: _8  and  _9
REMARK    7  A    between atoms: _9  and  _10
REMARK    8  A    between atoms: _14  and  _16
REMARK    9  A    between atoms: _16  and  _17
REMARK   10  A    between atoms: _16  and  _19
REMARK   11  A    between atoms: _19  and  _20
REMARK   12  A    between atoms: _22  and  _24
REMARK   13  A    between atoms: _24  and  _25
REMARK   14  A    between atoms: _27  and  _29
REMARK   15  A    between atoms: _29  and  _30
REMARK   16  A    between atoms: _29  and  _32
REMARK   17  A    between atoms: _32  and  _33
REMARK   18  A    between atoms: _33  and  _34
REMARK   19  A    between atoms: _39  and  _41
REMARK   20  A    between atoms: _41  and  _42
REMARK   21  A    between atoms: _44  and  _46
REMARK   22  A    between atoms: _46  and  _47
REMARK   23  A    between atoms: _46  and  _49
REMARK   24  A    between atoms: _49  and  _50
REMARK   25  A    between atoms: _55  and  _56
REMARK   26  A    between atoms: _58  and  _60
REMARK   27  A    between atoms: _60  and  _61
REMARK   28  A    between atoms: _60  and  _63
REMARK   29  A    between atoms: _63  and  _64
REMARK   30  A    between atoms: _67  and  _69
REMARK   31  A    between atoms: _69  and  _70
REMARK   32  A    between atoms: _69  and  _72
REMARK   33  A    between atoms: _75  and  _77
REMARK   34  A    between atoms: _77  and  _78
REMARK   35  A    between atoms: _77  and  _80
REMARK   36  A    between atoms: _80  and  _81
REMARK   37  A    between atoms: _84  and  _86
REMARK   38  A    between atoms: _86  and  _87
REMARK   39  A    between atoms: _86  and  _89
REMARK   40  A    between atoms: _89  and  _90
REMARK   41  A    between atoms: _93  and  _95
REMARK   42  A    between atoms: _95  and  _96
REMARK   43  A    between atoms: _98  and  _100
REMARK   44  A    between atoms: _100  and  _101
REMARK   45  A    between atoms: _100  and  _103
REMARK   46  A    between atoms: _103  and  _104
REMARK   47  A    between atoms: _106  and  _108
REMARK   48  A    between atoms: _108  and  _109
REMARK   49  A    between atoms: _108  and  _111
REMARK   50  A    between atoms: _111  and  _112
REMARK   51  A    between atoms: _114  and  _116
REMARK   52  A    between atoms: _116  and  _117
REMARK   53  A    between atoms: _116  and  _119
REMARK   54  A    between atoms: _119  and  _120
REMARK   55  A    between atoms: _125  and  _127
REMARK   56  A    between atoms: _127  and  _128
REMARK   57  A    between atoms: _127  and  _130
REMARK   58  A    between atoms: _130  and  _131
REMARK   59  A    between atoms: _136  and  _137
REMARK   60  A    between atoms: _139  and  _141
REMARK   61  A    between atoms: _141  and  _142
REMARK   62  A    between atoms: _141  and  _144
REMARK   63  A    between atoms: _148  and  _149
REMARK   64  A    between atoms: _154  and  _156
REMARK   65  A    between atoms: _156  and  _157
REMARK   66  A    between atoms: _156  and  _159
REMARK   67  A    between atoms: _159  and  _160
REMARK   68  A    between atoms: _165  and  _166
REMARK   69  A    between atoms: _168  and  _170
REMARK   70  A    between atoms: _170  and  _171
REMARK   71  A    between atoms: _170  and  _173
REMARK   72  A    between atoms: _173  and  _174
REMARK   73  A    between atoms: _177  and  _179
REMARK   74  A    between atoms: _179  and  _180
REMARK   75  A    between atoms: _179  and  _182
REMARK   76  A    between atoms: _182  and  _183
REMARK   77  A    between atoms: _183  and  _184
REMARK   78  A    between atoms: _189  and  _191
REMARK   79  A    between atoms: _191  and  _192
REMARK   80  A    between atoms: _194  and  _196
REMARK   81  A    between atoms: _196  and  _197
REMARK   82  A    between atoms: _196  and  _199
REMARK   83  A    between atoms: _199  and  _200
REMARK   84  A    between atoms: _200  and  _201
REMARK   85  A    between atoms: _201  and  _202
REMARK   86  A    between atoms: _202  and  _203
REMARK   87  A    between atoms: _207  and  _209
REMARK   88  A    between atoms: _209  and  _210
REMARK   89  A    between atoms: _209  and  _212
REMARK   90  A    between atoms: _212  and  _213
REMARK   91  A    between atoms: _223  and  _225
REMARK   92  A    between atoms: _225  and  _226
REMARK   93  A    between atoms: _225  and  _228
REMARK   94  A    between atoms: _228  and  _229
REMARK   95  A    between atoms: _232  and  _234
REMARK   96  A    between atoms: _234  and  _235
REMARK   97  A    between atoms: _234  and  _237
REMARK   98  A    between atoms: _237  and  _238
REMARK   99  A    between atoms: _238  and  _239
REMARK  100  A    between atoms: _239  and  _240
REMARK  101  A    between atoms: _240  and  _241
REMARK  102  A    between atoms: _245  and  _247
REMARK  103  A    between atoms: _247  and  _248
REMARK  104  A    between atoms: _247  and  _250
REMARK  105  A    between atoms: _250  and  _251
REMARK  106  A    between atoms: _257  and  _259
REMARK  107  A    between atoms: _259  and  _260
REMARK  108  A    between atoms: _259  and  _262
REMARK  109  A    between atoms: _262  and  _263
REMARK  110  A    between atoms: _269  and  _271
REMARK  111  A    between atoms: _271  and  _272
REMARK  112  A    between atoms: _271  and  _274
REMARK  113  A    between atoms: _274  and  _275
REMARK  114  A    between atoms: _278  and  _280
REMARK  115  A    between atoms: _280  and  _281
REMARK  116  A    between atoms: _280  and  _283
REMARK  117  A    between atoms: _283  and  _284
REMARK  118  A    between atoms: _286  and  _288
REMARK  119  A    between atoms: _288  and  _289
REMARK  120  A    between atoms: _288  and  _291
REMARK  121  A    between atoms: _291  and  _292
REMARK  122  A    between atoms: _302  and  _304
REMARK  123  A    between atoms: _304  and  _305
REMARK  124  A    between atoms: _307  and  _309
REMARK  125  A    between atoms: _309  and  _310
REMARK  126  A    between atoms: _309  and  _312
REMARK  127  A    between atoms: _312  and  _313
REMARK  128  A    between atoms: _316  and  _318
REMARK  129  A    between atoms: _318  and  _319
REMARK  130  A    between atoms: _318  and  _321
REMARK  131  A    between atoms: _321  and  _322
REMARK  132  A    between atoms: _325  and  _327
REMARK  133  A    between atoms: _327  and  _328
REMARK  134  A    between atoms: _330  and  _332
REMARK  135  A    between atoms: _332  and  _333
REMARK  136  A    between atoms: _332  and  _335
REMARK  137  A    between atoms: _335  and  _336
REMARK  138  A    between atoms: _339  and  _341
REMARK  139  A    between atoms: _341  and  _342
REMARK  140  A    between atoms: _345  and  _347
REMARK  141  A    between atoms: _347  and  _348
REMARK  142  A    between atoms: _347  and  _350
REMARK  143  A    between atoms: _350  and  _351
REMARK  144  A    between atoms: _354  and  _356
REMARK  145  A    between atoms: _356  and  _357
REMARK  146  A    between atoms: _360  and  _362
REMARK  147  A    between atoms: _362  and  _363
REMARK  148  A    between atoms: _362  and  _365
REMARK  149  A    between atoms: _365  and  _366
REMARK  150  A    between atoms: _366  and  _367
REMARK  151  A    between atoms: _367  and  _368
REMARK  152  A    between atoms: _377  and  _379
REMARK  153  A    between atoms: _379  and  _380
REMARK  154  A    between atoms: _379  and  _382
REMARK  155  A    between atoms: _382  and  _383
REMARK  156  A    between atoms: _386  and  _388
REMARK  157  A    between atoms: _388  and  _389
REMARK  158  A    between atoms: _388  and  _391
REMARK  159  A    between atoms: _391  and  _392
REMARK  160  A    between atoms: _397  and  _398
REMARK  161  A    between atoms: _400  and  _402
REMARK  162  A    between atoms: _402  and  _403
REMARK  163  A    between atoms: _402  and  _405
REMARK  164  A    between atoms: _405  and  _406
REMARK  165  A    between atoms: _411  and  _412
REMARK  166  A    between atoms: _414  and  _416
REMARK  167  A    between atoms: _416  and  _417
REMARK  168  A    between atoms: _416  and  _419
REMARK  169  A    between atoms: _419  and  _420
REMARK  170  A    between atoms: _420  and  _421
REMARK  171  A    between atoms: _421  and  _422
REMARK  172  A    between atoms: _422  and  _423
REMARK  173  A    between atoms: _427  and  _429
REMARK  174  A    between atoms: _429  and  _430
REMARK  175  A    between atoms: _429  and  _432
REMARK  176  A    between atoms: _432  and  _433
REMARK  177  A    between atoms: _436  and  _438
REMARK  178  A    between atoms: _438  and  _439
REMARK  179  A    between atoms: _438  and  _441
REMARK  180  A    between atoms: _444  and  _446
REMARK  181  A    between atoms: _446  and  _447
REMARK  182  A    between atoms: _446  and  _449
REMARK  183  A    between atoms: _449  and  _450
REMARK  184  A    between atoms: _453  and  _455
REMARK  185  A    between atoms: _455  and  _456
REMARK  186  A    between atoms: _455  and  _458
REMARK  187  A    between atoms: _458  and  _459
REMARK  188  A    between atoms: _461  and  _463
REMARK  189  A    between atoms: _463  and  _464
REMARK  190  A    between atoms: _466  and  _468
REMARK  191  A    between atoms: _468  and  _469
REMARK  192  A    between atoms: _468  and  _471
REMARK  193  A    between atoms: _471  and  _472
REMARK  194  A    between atoms: _475  and  _477
REMARK  195  A    between atoms: _477  and  _478
REMARK  196  A    between atoms: _477  and  _480
REMARK  197  A    between atoms: _480  and  _481
REMARK  198  A    between atoms: _484  and  _486
REMARK  199  A    between atoms: _486  and  _487
REMARK  200  A    between atoms: _486  and  _489
REMARK  201  A    between atoms: _489  and  _490
REMARK  202  A    between atoms: _495  and  _497
REMARK  203  A    between atoms: _497  and  _498
REMARK  204  A    between atoms: _497  and  _500
REMARK  205  A    between atoms: _500  and  _501
REMARK  206  A    between atoms: _501  and  _502
REMARK  207  A    between atoms: _502  and  _503
REMARK  208  A    between atoms: _512  and  _514
REMARK  209  A    between atoms: _514  and  _515
REMARK  210  A    between atoms: _514  and  _517
REMARK  211  A    between atoms: _517  and  _518
REMARK  212  A    between atoms: _518  and  _519
REMARK  213  A    between atoms: _519  and  _520
REMARK  214  A    between atoms: _529  and  _531
REMARK  215  A    between atoms: _531  and  _532
REMARK  216  A    between atoms: _531  and  _534
REMARK  217  A    between atoms: _534  and  _535
REMARK  218  A    between atoms: _537  and  _539
REMARK  219  A    between atoms: _539  and  _540
REMARK  220  A    between atoms: _539  and  _542
REMARK  221  A    between atoms: _542  and  _543
REMARK  222  A    between atoms: _543  and  _544
REMARK  223  A    between atoms: _549  and  _551
REMARK  224  A    between atoms: _551  and  _552
REMARK  225  A    between atoms: _551  and  _554
REMARK  226  A    between atoms: _554  and  _555
REMARK  227  A    between atoms: _557  and  _559
REMARK  228  A    between atoms: _559  and  _560
REMARK  229  A    between atoms: _559  and  _562
REMARK  230  A    between atoms: _562  and  _563
REMARK  231  A    between atoms: _565  and  _567
REMARK  232  A    between atoms: _567  and  _568
REMARK  233  A    between atoms: _567  and  _570
REMARK  234  A    between atoms: _570  and  _571
REMARK  235  A    between atoms: _574  and  _576
REMARK  236  A    between atoms: _576  and  _577
REMARK  237  A    between atoms: _576  and  _579
REMARK  238  A    between atoms: _579  and  _580
REMARK  239  A    between atoms: _583  and  _585
REMARK  240  A    between atoms: _585  and  _586
REMARK  241  A    between atoms: _585  and  _588
REMARK  242  A    between atoms: _591  and  _593
REMARK  243  A    between atoms: _593  and  _594
REMARK  244  A    between atoms: _596  and  _598
REMARK  245  A    between atoms: _598  and  _599
REMARK  246  A    between atoms: _602  and  _604
REMARK  247  A    between atoms: _604  and  _605
REMARK  248  A    between atoms: _604  and  _607
REMARK                            x       y       z     vdW  Elec       q    Type
REMARK                         _______ _______ _______ _____ _____    ______ ____
ROOT
ATOM      1  O   HOH     1      19.948  13.306  30.543  0.00  0.00    +0.000 OA
ENDROOT
TORSDOF 0
REMARK  Name = ../refined-set-2016/2qmg/2qmg_pocket.pdb
REMARK  248 active torsions:
REMARK  status: ('A' for Active; 'I' for Inactive)
REMARK    1  A    between atoms: _1  and  _3
REMARK    2  A    between atoms: _3  and  _4
REMARK    3  A    between atoms: _3  and  _6
REMARK    4  A    between atoms: _6  and  _7
REMARK    5  A    between atoms: _7  and  _8
REMARK    6  A    between atoms: _8  and  _9
REMARK    7  A    between atoms: _9  and  _10
REMARK    8  A    between atoms: _14  and  _16
REMARK    9  A    between atoms: _16  and  _17
REMARK   10  A    between atoms: _16  and  _19
REMARK   11  A    between atoms: _19  and  _20
REMARK   12  A    between atoms: _22  and  _24
REMARK   13  A    between atoms: _24  and  _25
REMARK   14  A    between atoms: _27  and  _29
REMARK   15  A    between atoms: _29  and  _30
REMARK   16  A    between atoms: _29  and  _32
REMARK   17  A    between atoms: _32  and  _33
REMARK   18  A    between atoms: _33  and  _34
REMARK   19  A    between atoms: _39  and  _41
REMARK   20  A    between atoms: _41  and  _42
REMARK   21  A    between atoms: _44  and  _46
REMARK   22  A    between atoms: _46  and  _47
REMARK   23  A    between atoms: _46  and  _49
REMARK   24  A    between atoms: _49  and  _50
REMARK   25  A    between atoms: _55  and  _56
REMARK   26  A    between atoms: _58  and  _60
REMARK   27  A    between atoms: _60  and  _61
REMARK   28  A    between atoms: _60  and  _63
REMARK   29  A    between atoms: _63  and  _64
REMARK   30  A    between atoms: _67  and  _69
REMARK   31  A    between atoms: _69  and  _70
REMARK   32  A    between atoms: _69  and  _72
REMARK   33  A    between atoms: _75  and  _77
REMARK   34  A    between atoms: _77  and  _78
REMARK   35  A    between atoms: _77  and  _80
REMARK   36  A    between atoms: _80  and  _81
REMARK   37  A    between atoms: _84  and  _86
REMARK   38  A    between atoms: _86  and  _87
REMARK   39  A    between atoms: _86  and  _89
REMARK   40  A    between atoms: _89  and  _90
REMARK   41  A    between atoms: _93  and  _95
REMARK   42  A    between atoms: _95  and  _96
REMARK   43  A    between atoms: _98  and  _100
REMARK   44  A    between atoms: _100  and  _101
REMARK   45  A    between atoms: _100  and  _103
REMARK   46  A    between atoms: _103  and  _104
REMARK   47  A    between atoms: _106  and  _108
REMARK   48  A    between atoms: _108  and  _109
REMARK   49  A    between atoms: _108  and  _111
REMARK   50  A    between atoms: _111  and  _112
REMARK   51  A    between atoms: _114  and  _116
REMARK   52  A    between atoms: _116  and  _117
REMARK   53  A    between atoms: _116  and  _119
REMARK   54  A    between atoms: _119  and  _120
REMARK   55  A    between atoms: _125  and  _127
REMARK   56  A    between atoms: _127  and  _128
REMARK   57  A    between atoms: _127  and  _130
REMARK   58  A    between atoms: _130  and  _131
REMARK   59  A    between atoms: _136  and  _137
REMARK   60  A    between atoms: _139  and  _141
REMARK   61  A    between atoms: _141  and  _142
REMARK   62  A    between atoms: _141  and  _144
REMARK   63  A    between atoms: _148  and  _149
REMARK   64  A    between atoms: _154  and  _156
REMARK   65  A    between atoms: _156  and  _157
REMARK   66  A    between atoms: _156  and  _159
REMARK   67  A    between atoms: _159  and  _160
REMARK   68  A    between atoms: _165  and  _166
REMARK   69  A    between atoms: _168  and  _170
REMARK   70  A    between atoms: _170  and  _171
REMARK   71  A    between atoms: _170  and  _173
REMARK   72  A    between atoms: _173  and  _174
REMARK   73  A    between atoms: _177  and  _179
REMARK   74  A    between atoms: _179  and  _180
REMARK   75  A    between atoms: _179  and  _182
REMARK   76  A    between atoms: _182  and  _183
REMARK   77  A    between atoms: _183  and  _184
REMARK   78  A    between atoms: _189  and  _191
REMARK   79  A    between atoms: _191  and  _192
REMARK   80  A    between atoms: _194  and  _196
REMARK   81  A    between atoms: _196  and  _197
REMARK   82  A    between atoms: _196  and  _199
REMARK   83  A    between atoms: _199  and  _200
REMARK   84  A    between atoms: _200  and  _201
REMARK   85  A    between atoms: _201  and  _202
REMARK   86  A    between atoms: _202  and  _203
REMARK   87  A    between atoms: _207  and  _209
REMARK   88  A    between atoms: _209  and  _210
REMARK   89  A    between atoms: _209  and  _212
REMARK   90  A    between atoms: _212  and  _213
REMARK   91  A    between atoms: _223  and  _225
REMARK   92  A    between atoms: _225  and  _226
REMARK   93  A    between atoms: _225  and  _228
REMARK   94  A    between atoms: _228  and  _229
REMARK   95  A    between atoms: _232  and  _234
REMARK   96  A    between atoms: _234  and  _235
REMARK   97  A    between atoms: _234  and  _237
REMARK   98  A    between atoms: _237  and  _238
REMARK   99  A    between atoms: _238  and  _239
REMARK  100  A    between atoms: _239  and  _240
REMARK  101  A    between atoms: _240  and  _241
REMARK  102  A    between atoms: _245  and  _247
REMARK  103  A    between atoms: _247  and  _248
REMARK  104  A    between atoms: _247  and  _250
REMARK  105  A    between atoms: _250  and  _251
REMARK  106  A    between atoms: _257  and  _259
REMARK  107  A    between atoms: _259  and  _260
REMARK  108  A    between atoms: _259  and  _262
REMARK  109  A    between atoms: _262  and  _263
REMARK  110  A    between atoms: _269  and  _271
REMARK  111  A    between atoms: _271  and  _272
REMARK  112  A    between atoms: _271  and  _274
REMARK  113  A    between atoms: _274  and  _275
REMARK  114  A    between atoms: _278  and  _280
REMARK  115  A    between atoms: _280  and  _281
REMARK  116  A    between atoms: _280  and  _283
REMARK  117  A    between atoms: _283  and  _284
REMARK  118  A    between atoms: _286  and  _288
REMARK  119  A    between atoms: _288  and  _289
REMARK  120  A    between atoms: _288  and  _291
REMARK  121  A    between atoms: _291  and  _292
REMARK  122  A    between atoms: _302  and  _304
REMARK  123  A    between atoms: _304  and  _305
REMARK  124  A    between atoms: _307  and  _309
REMARK  125  A    between atoms: _309  and  _310
REMARK  126  A    between atoms: _309  and  _312
REMARK  127  A    between atoms: _312  and  _313
REMARK  128  A    between atoms: _316  and  _318
REMARK  129  A    between atoms: _318  and  _319
REMARK  130  A    between atoms: _318  and  _321
REMARK  131  A    between atoms: _321  and  _322
REMARK  132  A    between atoms: _325  and  _327
REMARK  133  A    between atoms: _327  and  _328
REMARK  134  A    between atoms: _330  and  _332
REMARK  135  A    between atoms: _332  and  _333
REMARK  136  A    between atoms: _332  and  _335
REMARK  137  A    between atoms: _335  and  _336
REMARK  138  A    between atoms: _339  and  _341
REMARK  139  A    between atoms: _341  and  _342
REMARK  140  A    between atoms: _345  and  _347
REMARK  141  A    between atoms: _347  and  _348
REMARK  142  A    between atoms: _347  and  _350
REMARK  143  A    between atoms: _350  and  _351
REMARK  144  A    between atoms: _354  and  _356
REMARK  145  A    between atoms: _356  and  _357
REMARK  146  A    between atoms: _360  and  _362
REMARK  147  A    between atoms: _362  and  _363
REMARK  148  A    between atoms: _362  and  _365
REMARK  149  A    between atoms: _365  and  _366
REMARK  150  A    between atoms: _366  and  _367
REMARK  151  A    between atoms: _367  and  _368
REMARK  152  A    between atoms: _377  and  _379
REMARK  153  A    between atoms: _379  and  _380
REMARK  154  A    between atoms: _379  and  _382
REMARK  155  A    between atoms: _382  and  _383
REMARK  156  A    between atoms: _386  and  _388
REMARK  157  A    between atoms: _388  and  _389
REMARK  158  A    between atoms: _388  and  _391
REMARK  159  A    between atoms: _391  and  _392
REMARK  160  A    between atoms: _397  and  _398
REMARK  161  A    between atoms: _400  and  _402
REMARK  162  A    between atoms: _402  and  _403
REMARK  163  A    between atoms: _402  and  _405
REMARK  164  A    between atoms: _405  and  _406
REMARK  165  A    between atoms: _411  and  _412
REMARK  166  A    between atoms: _414  and  _416
REMARK  167  A    between atoms: _416  and  _417
REMARK  168  A    between atoms: _416  and  _419
REMARK  169  A    between atoms: _419  and  _420
REMARK  170  A    between atoms: _420  and  _421
REMARK  171  A    between atoms: _421  and  _422
REMARK  172  A    between atoms: _422  and  _423
REMARK  173  A    between atoms: _427  and  _429
REMARK  174  A    between atoms: _429  and  _430
REMARK  175  A    between atoms: _429  and  _432
REMARK  176  A    between atoms: _432  and  _433
REMARK  177  A    between atoms: _436  and  _438
REMARK  178  A    between atoms: _438  and  _439
REMARK  179  A    between atoms: _438  and  _441
REMARK  180  A    between atoms: _444  and  _446
REMARK  181  A    between atoms: _446  and  _447
REMARK  182  A    between atoms: _446  and  _449
REMARK  183  A    between atoms: _449  and  _450
REMARK  184  A    between atoms: _453  and  _455
REMARK  185  A    between atoms: _455  and  _456
REMARK  186  A    between atoms: _455  and  _458
REMARK  187  A    between atoms: _458  and  _459
REMARK  188  A    between atoms: _461  and  _463
REMARK  189  A    between atoms: _463  and  _464
REMARK  190  A    between atoms: _466  and  _468
REMARK  191  A    between atoms: _468  and  _469
REMARK  192  A    between atoms: _468  and  _471
REMARK  193  A    between atoms: _471  and  _472
REMARK  194  A    between atoms: _475  and  _477
REMARK  195  A    between atoms: _477  and  _478
REMARK  196  A    between atoms: _477  and  _480
REMARK  197  A    between atoms: _480  and  _481
REMARK  198  A    between atoms: _484  and  _486
REMARK  199  A    between atoms: _486  and  _487
REMARK  200  A    between atoms: _486  and  _489
REMARK  201  A    between atoms: _489  and  _490
REMARK  202  A    between atoms: _495  and  _497
REMARK  203  A    between atoms: _497  and  _498
REMARK  204  A    between atoms: _497  and  _500
REMARK  205  A    between atoms: _500  and  _501
REMARK  206  A    between atoms: _501  and  _502
REMARK  207  A    between atoms: _502  and  _503
REMARK  208  A    between atoms: _512  and  _514
REMARK  209  A    between atoms: _514  and  _515
REMARK  210  A    between atoms: _514  and  _517
REMARK  211  A    between atoms: _517  and  _518
REMARK  212  A    between atoms: _518  and  _519
REMARK  213  A    between atoms: _519  and  _520
REMARK  214  A    between atoms: _529  and  _531
REMARK  215  A    between atoms: _531  and  _532
REMARK  216  A    between atoms: _531  and  _534
REMARK  217  A    between atoms: _534  and  _535
REMARK  218  A    between atoms: _537  and  _539
REMARK  219  A    between atoms: _539  and  _540
REMARK  220  A    between atoms: _539  and  _542
REMARK  221  A    between atoms: _542  and  _543
REMARK  222  A    between atoms: _543  and  _544
REMARK  223  A    between atoms: _549  and  _551
REMARK  224  A    between atoms: _551  and  _552
REMARK  225  A    between atoms: _551  and  _554
REMARK  226  A    between atoms: _554  and  _555
REMARK  227  A    between atoms: _557  and  _559
REMARK  228  A    between atoms: _559  and  _560
REMARK  229  A    between atoms: _559  and  _562
REMARK  230  A    between atoms: _562  and  _563
REMARK  231  A    between atoms: _565  and  _567
REMARK  232  A    between atoms: _567  and  _568
REMARK  233  A    between atoms: _567  and  _570
REMARK  234  A    between atoms: _570  and  _571
REMARK  235  A    between atoms: _574  and  _576
REMARK  236  A    between atoms: _576  and  _577
REMARK  237  A    between atoms: _576  and  _579
REMARK  238  A    between atoms: _579  and  _580
REMARK  239  A    between atoms: _583  and  _585
REMARK  240  A    between atoms: _585  and  _586
REMARK  241  A    between atoms: _585  and  _588
REMARK  242  A    between atoms: _591  and  _593
REMARK  243  A    between atoms: _593  and  _594
REMARK  244  A    between atoms: _596  and  _598
REMARK  245  A    between atoms: _598  and  _599
REMARK  246  A    between atoms: _602  and  _604
REMARK  247  A    between atoms: _604  and  _605
REMARK  248  A    between atoms: _604  and  _607
REMARK                            x       y       z     vdW  Elec       q    Type
REMARK                         _______ _______ _______ _____ _____    ______ ____
ROOT
ATOM      1  O   HOH     1      28.518   9.549  12.493  0.00  0.00    +0.000 OA
ENDROOT
TORSDOF 0
REMARK  Name = ../refined-set-2016/2qmg/2qmg_pocket.pdb
REMARK  248 active torsions:
REMARK  status: ('A' for Active; 'I' for Inactive)
REMARK    1  A    between atoms: _1  and  _3
REMARK    2  A    between atoms: _3  and  _4
REMARK    3  A    between atoms: _3  and  _6
REMARK    4  A    between atoms: _6  and  _7
REMARK    5  A    between atoms: _7  and  _8
REMARK    6  A    between atoms: _8  and  _9
REMARK    7  A    between atoms: _9  and  _10
REMARK    8  A    between atoms: _14  and  _16
REMARK    9  A    between atoms: _16  and  _17
REMARK   10  A    between atoms: _16  and  _19
REMARK   11  A    between atoms: _19  and  _20
REMARK   12  A    between atoms: _22  and  _24
REMARK   13  A    between atoms: _24  and  _25
REMARK   14  A    between atoms: _27  and  _29
REMARK   15  A    between atoms: _29  and  _30
REMARK   16  A    between atoms: _29  and  _32
REMARK   17  A    between atoms: _32  and  _33
REMARK   18  A    between atoms: _33  and  _34
REMARK   19  A    between atoms: _39  and  _41
REMARK   20  A    between atoms: _41  and  _42
REMARK   21  A    between atoms: _44  and  _46
REMARK   22  A    between atoms: _46  and  _47
REMARK   23  A    between atoms: _46  and  _49
REMARK   24  A    between atoms: _49  and  _50
REMARK   25  A    between atoms: _55  and  _56
REMARK   26  A    between atoms: _58  and  _60
REMARK   27  A    between atoms: _60  and  _61
REMARK   28  A    between atoms: _60  and  _63
REMARK   29  A    between atoms: _63  and  _64
REMARK   30  A    between atoms: _67  and  _69
REMARK   31  A    between atoms: _69  and  _70
REMARK   32  A    between atoms: _69  and  _72
REMARK   33  A    between atoms: _75  and  _77
REMARK   34  A    between atoms: _77  and  _78
REMARK   35  A    between atoms: _77  and  _80
REMARK   36  A    between atoms: _80  and  _81
REMARK   37  A    between atoms: _84  and  _86
REMARK   38  A    between atoms: _86  and  _87
REMARK   39  A    between atoms: _86  and  _89
REMARK   40  A    between atoms: _89  and  _90
REMARK   41  A    between atoms: _93  and  _95
REMARK   42  A    between atoms: _95  and  _96
REMARK   43  A    between atoms: _98  and  _100
REMARK   44  A    between atoms: _100  and  _101
REMARK   45  A    between atoms: _100  and  _103
REMARK   46  A    between atoms: _103  and  _104
REMARK   47  A    between atoms: _106  and  _108
REMARK   48  A    between atoms: _108  and  _109
REMARK   49  A    between atoms: _108  and  _111
REMARK   50  A    between atoms: _111  and  _112
REMARK   51  A    between atoms: _114  and  _116
REMARK   52  A    between atoms: _116  and  _117
REMARK   53  A    between atoms: _116  and  _119
REMARK   54  A    between atoms: _119  and  _120
REMARK   55  A    between atoms: _125  and  _127
REMARK   56  A    between atoms: _127  and  _128
REMARK   57  A    between atoms: _127  and  _130
REMARK   58  A    between atoms: _130  and  _131
REMARK   59  A    between atoms: _136  and  _137
REMARK   60  A    between atoms: _139  and  _141
REMARK   61  A    between atoms: _141  and  _142
REMARK   62  A    between atoms: _141  and  _144
REMARK   63  A    between atoms: _148  and  _149
REMARK   64  A    between atoms: _154  and  _156
REMARK   65  A    between atoms: _156  and  _157
REMARK   66  A    between atoms: _156  and  _159
REMARK   67  A    between atoms: _159  and  _160
REMARK   68  A    between atoms: _165  and  _166
REMARK   69  A    between atoms: _168  and  _170
REMARK   70  A    between atoms: _170  and  _171
REMARK   71  A    between atoms: _170  and  _173
REMARK   72  A    between atoms: _173  and  _174
REMARK   73  A    between atoms: _177  and  _179
REMARK   74  A    between atoms: _179  and  _180
REMARK   75  A    between atoms: _179  and  _182
REMARK   76  A    between atoms: _182  and  _183
REMARK   77  A    between atoms: _183  and  _184
REMARK   78  A    between atoms: _189  and  _191
REMARK   79  A    between atoms: _191  and  _192
REMARK   80  A    between atoms: _194  and  _196
REMARK   81  A    between atoms: _196  and  _197
REMARK   82  A    between atoms: _196  and  _199
REMARK   83  A    between atoms: _199  and  _200
REMARK   84  A    between atoms: _200  and  _201
REMARK   85  A    between atoms: _201  and  _202
REMARK   86  A    between atoms: _202  and  _203
REMARK   87  A    between atoms: _207  and  _209
REMARK   88  A    between atoms: _209  and  _210
REMARK   89  A    between atoms: _209  and  _212
REMARK   90  A    between atoms: _212  and  _213
REMARK   91  A    between atoms: _223  and  _225
REMARK   92  A    between atoms: _225  and  _226
REMARK   93  A    between atoms: _225  and  _228
REMARK   94  A    between atoms: _228  and  _229
REMARK   95  A    between atoms: _232  and  _234
REMARK   96  A    between atoms: _234  and  _235
REMARK   97  A    between atoms: _234  and  _237
REMARK   98  A    between atoms: _237  and  _238
REMARK   99  A    between atoms: _238  and  _239
REMARK  100  A    between atoms: _239  and  _240
REMARK  101  A    between atoms: _240  and  _241
REMARK  102  A    between atoms: _245  and  _247
REMARK  103  A    between atoms: _247  and  _248
REMARK  104  A    between atoms: _247  and  _250
REMARK  105  A    between atoms: _250  and  _251
REMARK  106  A    between atoms: _257  and  _259
REMARK  107  A    between atoms: _259  and  _260
REMARK  108  A    between atoms: _259  and  _262
REMARK  109  A    between atoms: _262  and  _263
REMARK  110  A    between atoms: _269  and  _271
REMARK  111  A    between atoms: _271  and  _272
REMARK  112  A    between atoms: _271  and  _274
REMARK  113  A    between atoms: _274  and  _275
REMARK  114  A    between atoms: _278  and  _280
REMARK  115  A    between atoms: _280  and  _281
REMARK  116  A    between atoms: _280  and  _283
REMARK  117  A    between atoms: _283  and  _284
REMARK  118  A    between atoms: _286  and  _288
REMARK  119  A    between atoms: _288  and  _289
REMARK  120  A    between atoms: _288  and  _291
REMARK  121  A    between atoms: _291  and  _292
REMARK  122  A    between atoms: _302  and  _304
REMARK  123  A    between atoms: _304  and  _305
REMARK  124  A    between atoms: _307  and  _309
REMARK  125  A    between atoms: _309  and  _310
REMARK  126  A    between atoms: _309  and  _312
REMARK  127  A    between atoms: _312  and  _313
REMARK  128  A    between atoms: _316  and  _318
REMARK  129  A    between atoms: _318  and  _319
REMARK  130  A    between atoms: _318  and  _321
REMARK  131  A    between atoms: _321  and  _322
REMARK  132  A    between atoms: _325  and  _327
REMARK  133  A    between atoms: _327  and  _328
REMARK  134  A    between atoms: _330  and  _332
REMARK  135  A    between atoms: _332  and  _333
REMARK  136  A    between atoms: _332  and  _335
REMARK  137  A    between atoms: _335  and  _336
REMARK  138  A    between atoms: _339  and  _341
REMARK  139  A    between atoms: _341  and  _342
REMARK  140  A    between atoms: _345  and  _347
REMARK  141  A    between atoms: _347  and  _348
REMARK  142  A    between atoms: _347  and  _350
REMARK  143  A    between atoms: _350  and  _351
REMARK  144  A    between atoms: _354  and  _356
REMARK  145  A    between atoms: _356  and  _357
REMARK  146  A    between atoms: _360  and  _362
REMARK  147  A    between atoms: _362  and  _363
REMARK  148  A    between atoms: _362  and  _365
REMARK  149  A    between atoms: _365  and  _366
REMARK  150  A    between atoms: _366  and  _367
REMARK  151  A    between atoms: _367  and  _368
REMARK  152  A    between atoms: _377  and  _379
REMARK  153  A    between atoms: _379  and  _380
REMARK  154  A    between atoms: _379  and  _382
REMARK  155  A    between atoms: _382  and  _383
REMARK  156  A    between atoms: _386  and  _388
REMARK  157  A    between atoms: _388  and  _389
REMARK  158  A    between atoms: _388  and  _391
REMARK  159  A    between atoms: _391  and  _392
REMARK  160  A    between atoms: _397  and  _398
REMARK  161  A    between atoms: _400  and  _402
REMARK  162  A    between atoms: _402  and  _403
REMARK  163  A    between atoms: _402  and  _405
REMARK  164  A    between atoms: _405  and  _406
REMARK  165  A    between atoms: _411  and  _412
REMARK  166  A    between atoms: _414  and  _416
REMARK  167  A    between atoms: _416  and  _417
REMARK  168  A    between atoms: _416  and  _419
REMARK  169  A    between atoms: _419  and  _420
REMARK  170  A    between atoms: _420  and  _421
REMARK  171  A    between atoms: _421  and  _422
REMARK  172  A    between atoms: _422  and  _423
REMARK  173  A    between atoms: _427  and  _429
REMARK  174  A    between atoms: _429  and  _430
REMARK  175  A    between atoms: _429  and  _432
REMARK  176  A    between atoms: _432  and  _433
REMARK  177  A    between atoms: _436  and  _438
REMARK  178  A    between atoms: _438  and  _439
REMARK  179  A    between atoms: _438  and  _441
REMARK  180  A    between atoms: _444  and  _446
REMARK  181  A    between atoms: _446  and  _447
REMARK  182  A    between atoms: _446  and  _449
REMARK  183  A    between atoms: _449  and  _450
REMARK  184  A    between atoms: _453  and  _455
REMARK  185  A    between atoms: _455  and  _456
REMARK  186  A    between atoms: _455  and  _458
REMARK  187  A    between atoms: _458  and  _459
REMARK  188  A    between atoms: _461  and  _463
REMARK  189  A    between atoms: _463  and  _464
REMARK  190  A    between atoms: _466  and  _468
REMARK  191  A    between atoms: _468  and  _469
REMARK  192  A    between atoms: _468  and  _471
REMARK  193  A    between atoms: _471  and  _472
REMARK  194  A    between atoms: _475  and  _477
REMARK  195  A    between atoms: _477  and  _478
REMARK  196  A    between atoms: _477  and  _480
REMARK  197  A    between atoms: _480  and  _481
REMARK  198  A    between atoms: _484  and  _486
REMARK  199  A    between atoms: _486  and  _487
REMARK  200  A    between atoms: _486  and  _489
REMARK  201  A    between atoms: _489  and  _490
REMARK  202  A    between atoms: _495  and  _497
REMARK  203  A    between atoms: _497  and  _498
REMARK  204  A    between atoms: _497  and  _500
REMARK  205  A    between atoms: _500  and  _501
REMARK  206  A    between atoms: _501  and  _502
REMARK  207  A    between atoms: _502  and  _503
REMARK  208  A    between atoms: _512  and  _514
REMARK  209  A    between atoms: _514  and  _515
REMARK  210  A    between atoms: _514  and  _517
REMARK  211  A    between atoms: _517  and  _518
REMARK  212  A    between atoms: _518  and  _519
REMARK  213  A    between atoms: _519  and  _520
REMARK  214  A    between atoms: _529  and  _531
REMARK  215  A    between atoms: _531  and  _532
REMARK  216  A    between atoms: _531  and  _534
REMARK  217  A    between atoms: _534  and  _535
REMARK  218  A    between atoms: _537  and  _539
REMARK  219  A    between atoms: _539  and  _540
REMARK  220  A    between atoms: _539  and  _542
REMARK  221  A    between atoms: _542  and  _543
REMARK  222  A    between atoms: _543  and  _544
REMARK  223  A    between atoms: _549  and  _551
REMARK  224  A    between atoms: _551  and  _552
REMARK  225  A    between atoms: _551  and  _554
REMARK  226  A    between atoms: _554  and  _555
REMARK  227  A    between atoms: _557  and  _559
REMARK  228  A    between atoms: _559  and  _560
REMARK  229  A    between atoms: _559  and  _562
REMARK  230  A    between atoms: _562  and  _563
REMARK  231  A    between atoms: _565  and  _567
REMARK  232  A    between atoms: _567  and  _568
REMARK  233  A    between atoms: _567  and  _570
REMARK  234  A    between atoms: _570  and  _571
REMARK  235  A    between atoms: _574  and  _576
REMARK  236  A    between atoms: _576  and  _577
REMARK  237  A    between atoms: _576  and  _579
REMARK  238  A    between atoms: _579  and  _580
REMARK  239  A    between atoms: _583  and  _585
REMARK  240  A    between atoms: _585  and  _586
REMARK  241  A    between atoms: _585  and  _588
REMARK  242  A    between atoms: _591  and  _593
REMARK  243  A    between atoms: _593  and  _594
REMARK  244  A    between atoms: _596  and  _598
REMARK  245  A    between atoms: _598  and  _599
REMARK  246  A    between atoms: _602  and  _604
REMARK  247  A    between atoms: _604  and  _605
REMARK  248  A    between atoms: _604  and  _607
REMARK                            x       y       z     vdW  Elec       q    Type
REMARK                         _______ _______ _______ _____ _____    ______ ____
ROOT
ATOM      1  O   HOH     1      23.469  14.726  11.070  0.00  0.00    +0.000 OA
ENDROOT
TORSDOF 0
REMARK  Name = ../refined-set-2016/2qmg/2qmg_pocket.pdb
REMARK  248 active torsions:
REMARK  status: ('A' for Active; 'I' for Inactive)
REMARK    1  A    between atoms: _1  and  _3
REMARK    2  A    between atoms: _3  and  _4
REMARK    3  A    between atoms: _3  and  _6
REMARK    4  A    between atoms: _6  and  _7
REMARK    5  A    between atoms: _7  and  _8
REMARK    6  A    between atoms: _8  and  _9
REMARK    7  A    between atoms: _9  and  _10
REMARK    8  A    between atoms: _14  and  _16
REMARK    9  A    between atoms: _16  and  _17
REMARK   10  A    between atoms: _16  and  _19
REMARK   11  A    between atoms: _19  and  _20
REMARK   12  A    between atoms: _22  and  _24
REMARK   13  A    between atoms: _24  and  _25
REMARK   14  A    between atoms: _27  and  _29
REMARK   15  A    between atoms: _29  and  _30
REMARK   16  A    between atoms: _29  and  _32
REMARK   17  A    between atoms: _32  and  _33
REMARK   18  A    between atoms: _33  and  _34
REMARK   19  A    between atoms: _39  and  _41
REMARK   20  A    between atoms: _41  and  _42
REMARK   21  A    between atoms: _44  and  _46
REMARK   22  A    between atoms: _46  and  _47
REMARK   23  A    between atoms: _46  and  _49
REMARK   24  A    between atoms: _49  and  _50
REMARK   25  A    between atoms: _55  and  _56
REMARK   26  A    between atoms: _58  and  _60
REMARK   27  A    between atoms: _60  and  _61
REMARK   28  A    between atoms: _60  and  _63
REMARK   29  A    between atoms: _63  and  _64
REMARK   30  A    between atoms: _67  and  _69
REMARK   31  A    between atoms: _69  and  _70
REMARK   32  A    between atoms: _69  and  _72
REMARK   33  A    between atoms: _75  and  _77
REMARK   34  A    between atoms: _77  and  _78
REMARK   35  A    between atoms: _77  and  _80
REMARK   36  A    between atoms: _80  and  _81
REMARK   37  A    between atoms: _84  and  _86
REMARK   38  A    between atoms: _86  and  _87
REMARK   39  A    between atoms: _86  and  _89
REMARK   40  A    between atoms: _89  and  _90
REMARK   41  A    between atoms: _93  and  _95
REMARK   42  A    between atoms: _95  and  _96
REMARK   43  A    between atoms: _98  and  _100
REMARK   44  A    between atoms: _100  and  _101
REMARK   45  A    between atoms: _100  and  _103
REMARK   46  A    between atoms: _103  and  _104
REMARK   47  A    between atoms: _106  and  _108
REMARK   48  A    between atoms: _108  and  _109
REMARK   49  A    between atoms: _108  and  _111
REMARK   50  A    between atoms: _111  and  _112
REMARK   51  A    between atoms: _114  and  _116
REMARK   52  A    between atoms: _116  and  _117
REMARK   53  A    between atoms: _116  and  _119
REMARK   54  A    between atoms: _119  and  _120
REMARK   55  A    between atoms: _125  and  _127
REMARK   56  A    between atoms: _127  and  _128
REMARK   57  A    between atoms: _127  and  _130
REMARK   58  A    between atoms: _130  and  _131
REMARK   59  A    between atoms: _136  and  _137
REMARK   60  A    between atoms: _139  and  _141
REMARK   61  A    between atoms: _141  and  _142
REMARK   62  A    between atoms: _141  and  _144
REMARK   63  A    between atoms: _148  and  _149
REMARK   64  A    between atoms: _154  and  _156
REMARK   65  A    between atoms: _156  and  _157
REMARK   66  A    between atoms: _156  and  _159
REMARK   67  A    between atoms: _159  and  _160
REMARK   68  A    between atoms: _165  and  _166
REMARK   69  A    between atoms: _168  and  _170
REMARK   70  A    between atoms: _170  and  _171
REMARK   71  A    between atoms: _170  and  _173
REMARK   72  A    between atoms: _173  and  _174
REMARK   73  A    between atoms: _177  and  _179
REMARK   74  A    between atoms: _179  and  _180
REMARK   75  A    between atoms: _179  and  _182
REMARK   76  A    between atoms: _182  and  _183
REMARK   77  A    between atoms: _183  and  _184
REMARK   78  A    between atoms: _189  and  _191
REMARK   79  A    between atoms: _191  and  _192
REMARK   80  A    between atoms: _194  and  _196
REMARK   81  A    between atoms: _196  and  _197
REMARK   82  A    between atoms: _196  and  _199
REMARK   83  A    between atoms: _199  and  _200
REMARK   84  A    between atoms: _200  and  _201
REMARK   85  A    between atoms: _201  and  _202
REMARK   86  A    between atoms: _202  and  _203
REMARK   87  A    between atoms: _207  and  _209
REMARK   88  A    between atoms: _209  and  _210
REMARK   89  A    between atoms: _209  and  _212
REMARK   90  A    between atoms: _212  and  _213
REMARK   91  A    between atoms: _223  and  _225
REMARK   92  A    between atoms: _225  and  _226
REMARK   93  A    between atoms: _225  and  _228
REMARK   94  A    between atoms: _228  and  _229
REMARK   95  A    between atoms: _232  and  _234
REMARK   96  A    between atoms: _234  and  _235
REMARK   97  A    between atoms: _234  and  _237
REMARK   98  A    between atoms: _237  and  _238
REMARK   99  A    between atoms: _238  and  _239
REMARK  100  A    between atoms: _239  and  _240
REMARK  101  A    between atoms: _240  and  _241
REMARK  102  A    between atoms: _245  and  _247
REMARK  103  A    between atoms: _247  and  _248
REMARK  104  A    between atoms: _247  and  _250
REMARK  105  A    between atoms: _250  and  _251
REMARK  106  A    between atoms: _257  and  _259
REMARK  107  A    between atoms: _259  and  _260
REMARK  108  A    between atoms: _259  and  _262
REMARK  109  A    between atoms: _262  and  _263
REMARK  110  A    between atoms: _269  and  _271
REMARK  111  A    between atoms: _271  and  _272
REMARK  112  A    between atoms: _271  and  _274
REMARK  113  A    between atoms: _274  and  _275
REMARK  114  A    between atoms: _278  and  _280
REMARK  115  A    between atoms: _280  and  _281
REMARK  116  A    between atoms: _280  and  _283
REMARK  117  A    between atoms: _283  and  _284
REMARK  118  A    between atoms: _286  and  _288
REMARK  119  A    between atoms: _288  and  _289
REMARK  120  A    between atoms: _288  and  _291
REMARK  121  A    between atoms: _291  and  _292
REMARK  122  A    between atoms: _302  and  _304
REMARK  123  A    between atoms: _304  and  _305
REMARK  124  A    between atoms: _307  and  _309
REMARK  125  A    between atoms: _309  and  _310
REMARK  126  A    between atoms: _309  and  _312
REMARK  127  A    between atoms: _312  and  _313
REMARK  128  A    between atoms: _316  and  _318
REMARK  129  A    between atoms: _318  and  _319
REMARK  130  A    between atoms: _318  and  _321
REMARK  131  A    between atoms: _321  and  _322
REMARK  132  A    between atoms: _325  and  _327
REMARK  133  A    between atoms: _327  and  _328
REMARK  134  A    between atoms: _330  and  _332
REMARK  135  A    between atoms: _332  and  _333
REMARK  136  A    between atoms: _332  and  _335
REMARK  137  A    between atoms: _335  and  _336
REMARK  138  A    between atoms: _339  and  _341
REMARK  139  A    between atoms: _341  and  _342
REMARK  140  A    between atoms: _345  and  _347
REMARK  141  A    between atoms: _347  and  _348
REMARK  142  A    between atoms: _347  and  _350
REMARK  143  A    between atoms: _350  and  _351
REMARK  144  A    between atoms: _354  and  _356
REMARK  145  A    between atoms: _356  and  _357
REMARK  146  A    between atoms: _360  and  _362
REMARK  147  A    between atoms: _362  and  _363
REMARK  148  A    between atoms: _362  and  _365
REMARK  149  A    between atoms: _365  and  _366
REMARK  150  A    between atoms: _366  and  _367
REMARK  151  A    between atoms: _367  and  _368
REMARK  152  A    between atoms: _377  and  _379
REMARK  153  A    between atoms: _379  and  _380
REMARK  154  A    between atoms: _379  and  _382
REMARK  155  A    between atoms: _382  and  _383
REMARK  156  A    between atoms: _386  and  _388
REMARK  157  A    between atoms: _388  and  _389
REMARK  158  A    between atoms: _388  and  _391
REMARK  159  A    between atoms: _391  and  _392
REMARK  160  A    between atoms: _397  and  _398
REMARK  161  A    between atoms: _400  and  _402
REMARK  162  A    between atoms: _402  and  _403
REMARK  163  A    between atoms: _402  and  _405
REMARK  164  A    between atoms: _405  and  _406
REMARK  165  A    between atoms: _411  and  _412
REMARK  166  A    between atoms: _414  and  _416
REMARK  167  A    between atoms: _416  and  _417
REMARK  168  A    between atoms: _416  and  _419
REMARK  169  A    between atoms: _419  and  _420
REMARK  170  A    between atoms: _420  and  _421
REMARK  171  A    between atoms: _421  and  _422
REMARK  172  A    between atoms: _422  and  _423
REMARK  173  A    between atoms: _427  and  _429
REMARK  174  A    between atoms: _429  and  _430
REMARK  175  A    between atoms: _429  and  _432
REMARK  176  A    between atoms: _432  and  _433
REMARK  177  A    between atoms: _436  and  _438
REMARK  178  A    between atoms: _438  and  _439
REMARK  179  A    between atoms: _438  and  _441
REMARK  180  A    between atoms: _444  and  _446
REMARK  181  A    between atoms: _446  and  _447
REMARK  182  A    between atoms: _446  and  _449
REMARK  183  A    between atoms: _449  and  _450
REMARK  184  A    between atoms: _453  and  _455
REMARK  185  A    between atoms: _455  and  _456
REMARK  186  A    between atoms: _455  and  _458
REMARK  187  A    between atoms: _458  and  _459
REMARK  188  A    between atoms: _461  and  _463
REMARK  189  A    between atoms: _463  and  _464
REMARK  190  A    between atoms: _466  and  _468
REMARK  191  A    between atoms: _468  and  _469
REMARK  192  A    between atoms: _468  and  _471
REMARK  193  A    between atoms: _471  and  _472
REMARK  194  A    between atoms: _475  and  _477
REMARK  195  A    between atoms: _477  and  _478
REMARK  196  A    between atoms: _477  and  _480
REMARK  197  A    between atoms: _480  and  _481
REMARK  198  A    between atoms: _484  and  _486
REMARK  199  A    between atoms: _486  and  _487
REMARK  200  A    between atoms: _486  and  _489
REMARK  201  A    between atoms: _489  and  _490
REMARK  202  A    between atoms: _495  and  _497
REMARK  203  A    between atoms: _497  and  _498
REMARK  204  A    between atoms: _497  and  _500
REMARK  205  A    between atoms: _500  and  _501
REMARK  206  A    between atoms: _501  and  _502
REMARK  207  A    between atoms: _502  and  _503
REMARK  208  A    between atoms: _512  and  _514
REMARK  209  A    between atoms: _514  and  _515
REMARK  210  A    between atoms: _514  and  _517
REMARK  211  A    between atoms: _517  and  _518
REMARK  212  A    between atoms: _518  and  _519
REMARK  213  A    between atoms: _519  and  _520
REMARK  214  A    between atoms: _529  and  _531
REMARK  215  A    between atoms: _531  and  _532
REMARK  216  A    between atoms: _531  and  _534
REMARK  217  A    between atoms: _534  and  _535
REMARK  218  A    between atoms: _537  and  _539
REMARK  219  A    between atoms: _539  and  _540
REMARK  220  A    between atoms: _539  and  _542
REMARK  221  A    between atoms: _542  and  _543
REMARK  222  A    between atoms: _543  and  _544
REMARK  223  A    between atoms: _549  and  _551
REMARK  224  A    between atoms: _551  and  _552
REMARK  225  A    between atoms: _551  and  _554
REMARK  226  A    between atoms: _554  and  _555
REMARK  227  A    between atoms: _557  and  _559
REMARK  228  A    between atoms: _559  and  _560
REMARK  229  A    between atoms: _559  and  _562
REMARK  230  A    between atoms: _562  and  _563
REMARK  231  A    between atoms: _565  and  _567
REMARK  232  A    between atoms: _567  and  _568
REMARK  233  A    between atoms: _567  and  _570
REMARK  234  A    between atoms: _570  and  _571
REMARK  235  A    between atoms: _574  and  _576
REMARK  236  A    between atoms: _576  and  _577
REMARK  237  A    between atoms: _576  and  _579
REMARK  238  A    between atoms: _579  and  _580
REMARK  239  A    between atoms: _583  and  _585
REMARK  240  A    between atoms: _585  and  _586
REMARK  241  A    between atoms: _585  and  _588
REMARK  242  A    between atoms: _591  and  _593
REMARK  243  A    between atoms: _593  and  _594
REMARK  244  A    between atoms: _596  and  _598
REMARK  245  A    between atoms: _598  and  _599
REMARK  246  A    between atoms: _602  and  _604
REMARK  247  A    between atoms: _604  and  _605
REMARK  248  A    between atoms: _604  and  _607
REMARK                            x       y       z     vdW  Elec       q    Type
REMARK                         _______ _______ _______ _____ _____    ______ ____
ROOT
ATOM      1  O   HOH     1      26.666  14.254  16.841  0.00  0.00    +0.000 OA
ENDROOT
TORSDOF 0
REMARK  Name = ../refined-set-2016/2qmg/2qmg_pocket.pdb
REMARK  248 active torsions:
REMARK  status: ('A' for Active; 'I' for Inactive)
REMARK    1  A    between atoms: _1  and  _3
REMARK    2  A    between atoms: _3  and  _4
REMARK    3  A    between atoms: _3  and  _6
REMARK    4  A    between atoms: _6  and  _7
REMARK    5  A    between atoms: _7  and  _8
REMARK    6  A    between atoms: _8  and  _9
REMARK    7  A    between atoms: _9  and  _10
REMARK    8  A    between atoms: _14  and  _16
REMARK    9  A    between atoms: _16  and  _17
REMARK   10  A    between atoms: _16  and  _19
REMARK   11  A    between atoms: _19  and  _20
REMARK   12  A    between atoms: _22  and  _24
REMARK   13  A    between atoms: _24  and  _25
REMARK   14  A    between atoms: _27  and  _29
REMARK   15  A    between atoms: _29  and  _30
REMARK   16  A    between atoms: _29  and  _32
REMARK   17  A    between atoms: _32  and  _33
REMARK   18  A    between atoms: _33  and  _34
REMARK   19  A    between atoms: _39  and  _41
REMARK   20  A    between atoms: _41  and  _42
REMARK   21  A    between atoms: _44  and  _46
REMARK   22  A    between atoms: _46  and  _47
REMARK   23  A    between atoms: _46  and  _49
REMARK   24  A    between atoms: _49  and  _50
REMARK   25  A    between atoms: _55  and  _56
REMARK   26  A    between atoms: _58  and  _60
REMARK   27  A    between atoms: _60  and  _61
REMARK   28  A    between atoms: _60  and  _63
REMARK   29  A    between atoms: _63  and  _64
REMARK   30  A    between atoms: _67  and  _69
REMARK   31  A    between atoms: _69  and  _70
REMARK   32  A    between atoms: _69  and  _72
REMARK   33  A    between atoms: _75  and  _77
REMARK   34  A    between atoms: _77  and  _78
REMARK   35  A    between atoms: _77  and  _80
REMARK   36  A    between atoms: _80  and  _81
REMARK   37  A    between atoms: _84  and  _86
REMARK   38  A    between atoms: _86  and  _87
REMARK   39  A    between atoms: _86  and  _89
REMARK   40  A    between atoms: _89  and  _90
REMARK   41  A    between atoms: _93  and  _95
REMARK   42  A    between atoms: _95  and  _96
REMARK   43  A    between atoms: _98  and  _100
REMARK   44  A    between atoms: _100  and  _101
REMARK   45  A    between atoms: _100  and  _103
REMARK   46  A    between atoms: _103  and  _104
REMARK   47  A    between atoms: _106  and  _108
REMARK   48  A    between atoms: _108  and  _109
REMARK   49  A    between atoms: _108  and  _111
REMARK   50  A    between atoms: _111  and  _112
REMARK   51  A    between atoms: _114  and  _116
REMARK   52  A    between atoms: _116  and  _117
REMARK   53  A    between atoms: _116  and  _119
REMARK   54  A    between atoms: _119  and  _120
REMARK   55  A    between atoms: _125  and  _127
REMARK   56  A    between atoms: _127  and  _128
REMARK   57  A    between atoms: _127  and  _130
REMARK   58  A    between atoms: _130  and  _131
REMARK   59  A    between atoms: _136  and  _137
REMARK   60  A    between atoms: _139  and  _141
REMARK   61  A    between atoms: _141  and  _142
REMARK   62  A    between atoms: _141  and  _144
REMARK   63  A    between atoms: _148  and  _149
REMARK   64  A    between atoms: _154  and  _156
REMARK   65  A    between atoms: _156  and  _157
REMARK   66  A    between atoms: _156  and  _159
REMARK   67  A    between atoms: _159  and  _160
REMARK   68  A    between atoms: _165  and  _166
REMARK   69  A    between atoms: _168  and  _170
REMARK   70  A    between atoms: _170  and  _171
REMARK   71  A    between atoms: _170  and  _173
REMARK   72  A    between atoms: _173  and  _174
REMARK   73  A    between atoms: _177  and  _179
REMARK   74  A    between atoms: _179  and  _180
REMARK   75  A    between atoms: _179  and  _182
REMARK   76  A    between atoms: _182  and  _183
REMARK   77  A    between atoms: _183  and  _184
REMARK   78  A    between atoms: _189  and  _191
REMARK   79  A    between atoms: _191  and  _192
REMARK   80  A    between atoms: _194  and  _196
REMARK   81  A    between atoms: _196  and  _197
REMARK   82  A    between atoms: _196  and  _199
REMARK   83  A    between atoms: _199  and  _200
REMARK   84  A    between atoms: _200  and  _201
REMARK   85  A    between atoms: _201  and  _202
REMARK   86  A    between atoms: _202  and  _203
REMARK   87  A    between atoms: _207  and  _209
REMARK   88  A    between atoms: _209  and  _210
REMARK   89  A    between atoms: _209  and  _212
REMARK   90  A    between atoms: _212  and  _213
REMARK   91  A    between atoms: _223  and  _225
REMARK   92  A    between atoms: _225  and  _226
REMARK   93  A    between atoms: _225  and  _228
REMARK   94  A    between atoms: _228  and  _229
REMARK   95  A    between atoms: _232  and  _234
REMARK   96  A    between atoms: _234  and  _235
REMARK   97  A    between atoms: _234  and  _237
REMARK   98  A    between atoms: _237  and  _238
REMARK   99  A    between atoms: _238  and  _239
REMARK  100  A    between atoms: _239  and  _240
REMARK  101  A    between atoms: _240  and  _241
REMARK  102  A    between atoms: _245  and  _247
REMARK  103  A    between atoms: _247  and  _248
REMARK  104  A    between atoms: _247  and  _250
REMARK  105  A    between atoms: _250  and  _251
REMARK  106  A    between atoms: _257  and  _259
REMARK  107  A    between atoms: _259  and  _260
REMARK  108  A    between atoms: _259  and  _262
REMARK  109  A    between atoms: _262  and  _263
REMARK  110  A    between atoms: _269  and  _271
REMARK  111  A    between atoms: _271  and  _272
REMARK  112  A    between atoms: _271  and  _274
REMARK  113  A    between atoms: _274  and  _275
REMARK  114  A    between atoms: _278  and  _280
REMARK  115  A    between atoms: _280  and  _281
REMARK  116  A    between atoms: _280  and  _283
REMARK  117  A    between atoms: _283  and  _284
REMARK  118  A    between atoms: _286  and  _288
REMARK  119  A    between atoms: _288  and  _289
REMARK  120  A    between atoms: _288  and  _291
REMARK  121  A    between atoms: _291  and  _292
REMARK  122  A    between atoms: _302  and  _304
REMARK  123  A    between atoms: _304  and  _305
REMARK  124  A    between atoms: _307  and  _309
REMARK  125  A    between atoms: _309  and  _310
REMARK  126  A    between atoms: _309  and  _312
REMARK  127  A    between atoms: _312  and  _313
REMARK  128  A    between atoms: _316  and  _318
REMARK  129  A    between atoms: _318  and  _319
REMARK  130  A    between atoms: _318  and  _321
REMARK  131  A    between atoms: _321  and  _322
REMARK  132  A    between atoms: _325  and  _327
REMARK  133  A    between atoms: _327  and  _328
REMARK  134  A    between atoms: _330  and  _332
REMARK  135  A    between atoms: _332  and  _333
REMARK  136  A    between atoms: _332  and  _335
REMARK  137  A    between atoms: _335  and  _336
REMARK  138  A    between atoms: _339  and  _341
REMARK  139  A    between atoms: _341  and  _342
REMARK  140  A    between atoms: _345  and  _347
REMARK  141  A    between atoms: _347  and  _348
REMARK  142  A    between atoms: _347  and  _350
REMARK  143  A    between atoms: _350  and  _351
REMARK  144  A    between atoms: _354  and  _356
REMARK  145  A    between atoms: _356  and  _357
REMARK  146  A    between atoms: _360  and  _362
REMARK  147  A    between atoms: _362  and  _363
REMARK  148  A    between atoms: _362  and  _365
REMARK  149  A    between atoms: _365  and  _366
REMARK  150  A    between atoms: _366  and  _367
REMARK  151  A    between atoms: _367  and  _368
REMARK  152  A    between atoms: _377  and  _379
REMARK  153  A    between atoms: _379  and  _380
REMARK  154  A    between atoms: _379  and  _382
REMARK  155  A    between atoms: _382  and  _383
REMARK  156  A    between atoms: _386  and  _388
REMARK  157  A    between atoms: _388  and  _389
REMARK  158  A    between atoms: _388  and  _391
REMARK  159  A    between atoms: _391  and  _392
REMARK  160  A    between atoms: _397  and  _398
REMARK  161  A    between atoms: _400  and  _402
REMARK  162  A    between atoms: _402  and  _403
REMARK  163  A    between atoms: _402  and  _405
REMARK  164  A    between atoms: _405  and  _406
REMARK  165  A    between atoms: _411  and  _412
REMARK  166  A    between atoms: _414  and  _416
REMARK  167  A    between atoms: _416  and  _417
REMARK  168  A    between atoms: _416  and  _419
REMARK  169  A    between atoms: _419  and  _420
REMARK  170  A    between atoms: _420  and  _421
REMARK  171  A    between atoms: _421  and  _422
REMARK  172  A    between atoms: _422  and  _423
REMARK  173  A    between atoms: _427  and  _429
REMARK  174  A    between atoms: _429  and  _430
REMARK  175  A    between atoms: _429  and  _432
REMARK  176  A    between atoms: _432  and  _433
REMARK  177  A    between atoms: _436  and  _438
REMARK  178  A    between atoms: _438  and  _439
REMARK  179  A    between atoms: _438  and  _441
REMARK  180  A    between atoms: _444  and  _446
REMARK  181  A    between atoms: _446  and  _447
REMARK  182  A    between atoms: _446  and  _449
REMARK  183  A    between atoms: _449  and  _450
REMARK  184  A    between atoms: _453  and  _455
REMARK  185  A    between atoms: _455  and  _456
REMARK  186  A    between atoms: _455  and  _458
REMARK  187  A    between atoms: _458  and  _459
REMARK  188  A    between atoms: _461  and  _463
REMARK  189  A    between atoms: _463  and  _464
REMARK  190  A    between atoms: _466  and  _468
REMARK  191  A    between atoms: _468  and  _469
REMARK  192  A    between atoms: _468  and  _471
REMARK  193  A    between atoms: _471  and  _472
REMARK  194  A    between atoms: _475  and  _477
REMARK  195  A    between atoms: _477  and  _478
REMARK  196  A    between atoms: _477  and  _480
REMARK  197  A    between atoms: _480  and  _481
REMARK  198  A    between atoms: _484  and  _486
REMARK  199  A    between atoms: _486  and  _487
REMARK  200  A    between atoms: _486  and  _489
REMARK  201  A    between atoms: _489  and  _490
REMARK  202  A    between atoms: _495  and  _497
REMARK  203  A    between atoms: _497  and  _498
REMARK  204  A    between atoms: _497  and  _500
REMARK  205  A    between atoms: _500  and  _501
REMARK  206  A    between atoms: _501  and  _502
REMARK  207  A    between atoms: _502  and  _503
REMARK  208  A    between atoms: _512  and  _514
REMARK  209  A    between atoms: _514  and  _515
REMARK  210  A    between atoms: _514  and  _517
REMARK  211  A    between atoms: _517  and  _518
REMARK  212  A    between atoms: _518  and  _519
REMARK  213  A    between atoms: _519  and  _520
REMARK  214  A    between atoms: _529  and  _531
REMARK  215  A    between atoms: _531  and  _532
REMARK  216  A    between atoms: _531  and  _534
REMARK  217  A    between atoms: _534  and  _535
REMARK  218  A    between atoms: _537  and  _539
REMARK  219  A    between atoms: _539  and  _540
REMARK  220  A    between atoms: _539  and  _542
REMARK  221  A    between atoms: _542  and  _543
REMARK  222  A    between atoms: _543  and  _544
REMARK  223  A    between atoms: _549  and  _551
REMARK  224  A    between atoms: _551  and  _552
REMARK  225  A    between atoms: _551  and  _554
REMARK  226  A    between atoms: _554  and  _555
REMARK  227  A    between atoms: _557  and  _559
REMARK  228  A    between atoms: _559  and  _560
REMARK  229  A    between atoms: _559  and  _562
REMARK  230  A    between atoms: _562  and  _563
REMARK  231  A    between atoms: _565  and  _567
REMARK  232  A    between atoms: _567  and  _568
REMARK  233  A    between atoms: _567  and  _570
REMARK  234  A    between atoms: _570  and  _571
REMARK  235  A    between atoms: _574  and  _576
REMARK  236  A    between atoms: _576  and  _577
REMARK  237  A    between atoms: _576  and  _579
REMARK  238  A    between atoms: _579  and  _580
REMARK  239  A    between atoms: _583  and  _585
REMARK  240  A    between atoms: _585  and  _586
REMARK  241  A    between atoms: _585  and  _588
REMARK  242  A    between atoms: _591  and  _593
REMARK  243  A    between atoms: _593  and  _594
REMARK  244  A    between atoms: _596  and  _598
REMARK  245  A    between atoms: _598  and  _599
REMARK  246  A    between atoms: _602  and  _604
REMARK  247  A    between atoms: _604  and  _605
REMARK  248  A    between atoms: _604  and  _607
REMARK                            x       y       z     vdW  Elec       q    Type
REMARK                         _______ _______ _______ _____ _____    ______ ____
ROOT
ATOM      1  O   HOH     1      33.809   6.841  16.780  0.00  0.00    +0.000 OA
ENDROOT
TORSDOF 0
REMARK  Name = ../refined-set-2016/2qmg/2qmg_pocket.pdb
REMARK  248 active torsions:
REMARK  status: ('A' for Active; 'I' for Inactive)
REMARK    1  A    between atoms: _1  and  _3
REMARK    2  A    between atoms: _3  and  _4
REMARK    3  A    between atoms: _3  and  _6
REMARK    4  A    between atoms: _6  and  _7
REMARK    5  A    between atoms: _7  and  _8
REMARK    6  A    between atoms: _8  and  _9
REMARK    7  A    between atoms: _9  and  _10
REMARK    8  A    between atoms: _14  and  _16
REMARK    9  A    between atoms: _16  and  _17
REMARK   10  A    between atoms: _16  and  _19
REMARK   11  A    between atoms: _19  and  _20
REMARK   12  A    between atoms: _22  and  _24
REMARK   13  A    between atoms: _24  and  _25
REMARK   14  A    between atoms: _27  and  _29
REMARK   15  A    between atoms: _29  and  _30
REMARK   16  A    between atoms: _29  and  _32
REMARK   17  A    between atoms: _32  and  _33
REMARK   18  A    between atoms: _33  and  _34
REMARK   19  A    between atoms: _39  and  _41
REMARK   20  A    between atoms: _41  and  _42
REMARK   21  A    between atoms: _44  and  _46
REMARK   22  A    between atoms: _46  and  _47
REMARK   23  A    between atoms: _46  and  _49
REMARK   24  A    between atoms: _49  and  _50
REMARK   25  A    between atoms: _55  and  _56
REMARK   26  A    between atoms: _58  and  _60
REMARK   27  A    between atoms: _60  and  _61
REMARK   28  A    between atoms: _60  and  _63
REMARK   29  A    between atoms: _63  and  _64
REMARK   30  A    between atoms: _67  and  _69
REMARK   31  A    between atoms: _69  and  _70
REMARK   32  A    between atoms: _69  and  _72
REMARK   33  A    between atoms: _75  and  _77
REMARK   34  A    between atoms: _77  and  _78
REMARK   35  A    between atoms: _77  and  _80
REMARK   36  A    between atoms: _80  and  _81
REMARK   37  A    between atoms: _84  and  _86
REMARK   38  A    between atoms: _86  and  _87
REMARK   39  A    between atoms: _86  and  _89
REMARK   40  A    between atoms: _89  and  _90
REMARK   41  A    between atoms: _93  and  _95
REMARK   42  A    between atoms: _95  and  _96
REMARK   43  A    between atoms: _98  and  _100
REMARK   44  A    between atoms: _100  and  _101
REMARK   45  A    between atoms: _100  and  _103
REMARK   46  A    between atoms: _103  and  _104
REMARK   47  A    between atoms: _106  and  _108
REMARK   48  A    between atoms: _108  and  _109
REMARK   49  A    between atoms: _108  and  _111
REMARK   50  A    between atoms: _111  and  _112
REMARK   51  A    between atoms: _114  and  _116
REMARK   52  A    between atoms: _116  and  _117
REMARK   53  A    between atoms: _116  and  _119
REMARK   54  A    between atoms: _119  and  _120
REMARK   55  A    between atoms: _125  and  _127
REMARK   56  A    between atoms: _127  and  _128
REMARK   57  A    between atoms: _127  and  _130
REMARK   58  A    between atoms: _130  and  _131
REMARK   59  A    between atoms: _136  and  _137
REMARK   60  A    between atoms: _139  and  _141
REMARK   61  A    between atoms: _141  and  _142
REMARK   62  A    between atoms: _141  and  _144
REMARK   63  A    between atoms: _148  and  _149
REMARK   64  A    between atoms: _154  and  _156
REMARK   65  A    between atoms: _156  and  _157
REMARK   66  A    between atoms: _156  and  _159
REMARK   67  A    between atoms: _159  and  _160
REMARK   68  A    between atoms: _165  and  _166
REMARK   69  A    between atoms: _168  and  _170
REMARK   70  A    between atoms: _170  and  _171
REMARK   71  A    between atoms: _170  and  _173
REMARK   72  A    between atoms: _173  and  _174
REMARK   73  A    between atoms: _177  and  _179
REMARK   74  A    between atoms: _179  and  _180
REMARK   75  A    between atoms: _179  and  _182
REMARK   76  A    between atoms: _182  and  _183
REMARK   77  A    between atoms: _183  and  _184
REMARK   78  A    between atoms: _189  and  _191
REMARK   79  A    between atoms: _191  and  _192
REMARK   80  A    between atoms: _194  and  _196
REMARK   81  A    between atoms: _196  and  _197
REMARK   82  A    between atoms: _196  and  _199
REMARK   83  A    between atoms: _199  and  _200
REMARK   84  A    between atoms: _200  and  _201
REMARK   85  A    between atoms: _201  and  _202
REMARK   86  A    between atoms: _202  and  _203
REMARK   87  A    between atoms: _207  and  _209
REMARK   88  A    between atoms: _209  and  _210
REMARK   89  A    between atoms: _209  and  _212
REMARK   90  A    between atoms: _212  and  _213
REMARK   91  A    between atoms: _223  and  _225
REMARK   92  A    between atoms: _225  and  _226
REMARK   93  A    between atoms: _225  and  _228
REMARK   94  A    between atoms: _228  and  _229
REMARK   95  A    between atoms: _232  and  _234
REMARK   96  A    between atoms: _234  and  _235
REMARK   97  A    between atoms: _234  and  _237
REMARK   98  A    between atoms: _237  and  _238
REMARK   99  A    between atoms: _238  and  _239
REMARK  100  A    between atoms: _239  and  _240
REMARK  101  A    between atoms: _240  and  _241
REMARK  102  A    between atoms: _245  and  _247
REMARK  103  A    between atoms: _247  and  _248
REMARK  104  A    between atoms: _247  and  _250
REMARK  105  A    between atoms: _250  and  _251
REMARK  106  A    between atoms: _257  and  _259
REMARK  107  A    between atoms: _259  and  _260
REMARK  108  A    between atoms: _259  and  _262
REMARK  109  A    between atoms: _262  and  _263
REMARK  110  A    between atoms: _269  and  _271
REMARK  111  A    between atoms: _271  and  _272
REMARK  112  A    between atoms: _271  and  _274
REMARK  113  A    between atoms: _274  and  _275
REMARK  114  A    between atoms: _278  and  _280
REMARK  115  A    between atoms: _280  and  _281
REMARK  116  A    between atoms: _280  and  _283
REMARK  117  A    between atoms: _283  and  _284
REMARK  118  A    between atoms: _286  and  _288
REMARK  119  A    between atoms: _288  and  _289
REMARK  120  A    between atoms: _288  and  _291
REMARK  121  A    between atoms: _291  and  _292
REMARK  122  A    between atoms: _302  and  _304
REMARK  123  A    between atoms: _304  and  _305
REMARK  124  A    between atoms: _307  and  _309
REMARK  125  A    between atoms: _309  and  _310
REMARK  126  A    between atoms: _309  and  _312
REMARK  127  A    between atoms: _312  and  _313
REMARK  128  A    between atoms: _316  and  _318
REMARK  129  A    between atoms: _318  and  _319
REMARK  130  A    between atoms: _318  and  _321
REMARK  131  A    between atoms: _321  and  _322
REMARK  132  A    between atoms: _325  and  _327
REMARK  133  A    between atoms: _327  and  _328
REMARK  134  A    between atoms: _330  and  _332
REMARK  135  A    between atoms: _332  and  _333
REMARK  136  A    between atoms: _332  and  _335
REMARK  137  A    between atoms: _335  and  _336
REMARK  138  A    between atoms: _339  and  _341
REMARK  139  A    between atoms: _341  and  _342
REMARK  140  A    between atoms: _345  and  _347
REMARK  141  A    between atoms: _347  and  _348
REMARK  142  A    between atoms: _347  and  _350
REMARK  143  A    between atoms: _350  and  _351
REMARK  144  A    between atoms: _354  and  _356
REMARK  145  A    between atoms: _356  and  _357
REMARK  146  A    between atoms: _360  and  _362
REMARK  147  A    between atoms: _362  and  _363
REMARK  148  A    between atoms: _362  and  _365
REMARK  149  A    between atoms: _365  and  _366
REMARK  150  A    between atoms: _366  and  _367
REMARK  151  A    between atoms: _367  and  _368
REMARK  152  A    between atoms: _377  and  _379
REMARK  153  A    between atoms: _379  and  _380
REMARK  154  A    between atoms: _379  and  _382
REMARK  155  A    between atoms: _382  and  _383
REMARK  156  A    between atoms: _386  and  _388
REMARK  157  A    between atoms: _388  and  _389
REMARK  158  A    between atoms: _388  and  _391
REMARK  159  A    between atoms: _391  and  _392
REMARK  160  A    between atoms: _397  and  _398
REMARK  161  A    between atoms: _400  and  _402
REMARK  162  A    between atoms: _402  and  _403
REMARK  163  A    between atoms: _402  and  _405
REMARK  164  A    between atoms: _405  and  _406
REMARK  165  A    between atoms: _411  and  _412
REMARK  166  A    between atoms: _414  and  _416
REMARK  167  A    between atoms: _416  and  _417
REMARK  168  A    between atoms: _416  and  _419
REMARK  169  A    between atoms: _419  and  _420
REMARK  170  A    between atoms: _420  and  _421
REMARK  171  A    between atoms: _421  and  _422
REMARK  172  A    between atoms: _422  and  _423
REMARK  173  A    between atoms: _427  and  _429
REMARK  174  A    between atoms: _429  and  _430
REMARK  175  A    between atoms: _429  and  _432
REMARK  176  A    between atoms: _432  and  _433
REMARK  177  A    between atoms: _436  and  _438
REMARK  178  A    between atoms: _438  and  _439
REMARK  179  A    between atoms: _438  and  _441
REMARK  180  A    between atoms: _444  and  _446
REMARK  181  A    between atoms: _446  and  _447
REMARK  182  A    between atoms: _446  and  _449
REMARK  183  A    between atoms: _449  and  _450
REMARK  184  A    between atoms: _453  and  _455
REMARK  185  A    between atoms: _455  and  _456
REMARK  186  A    between atoms: _455  and  _458
REMARK  187  A    between atoms: _458  and  _459
REMARK  188  A    between atoms: _461  and  _463
REMARK  189  A    between atoms: _463  and  _464
REMARK  190  A    between atoms: _466  and  _468
REMARK  191  A    between atoms: _468  and  _469
REMARK  192  A    between atoms: _468  and  _471
REMARK  193  A    between atoms: _471  and  _472
REMARK  194  A    between atoms: _475  and  _477
REMARK  195  A    between atoms: _477  and  _478
REMARK  196  A    between atoms: _477  and  _480
REMARK  197  A    between atoms: _480  and  _481
REMARK  198  A    between atoms: _484  and  _486
REMARK  199  A    between atoms: _486  and  _487
REMARK  200  A    between atoms: _486  and  _489
REMARK  201  A    between atoms: _489  and  _490
REMARK  202  A    between atoms: _495  and  _497
REMARK  203  A    between atoms: _497  and  _498
REMARK  204  A    between atoms: _497  and  _500
REMARK  205  A    between atoms: _500  and  _501
REMARK  206  A    between atoms: _501  and  _502
REMARK  207  A    between atoms: _502  and  _503
REMARK  208  A    between atoms: _512  and  _514
REMARK  209  A    between atoms: _514  and  _515
REMARK  210  A    between atoms: _514  and  _517
REMARK  211  A    between atoms: _517  and  _518
REMARK  212  A    between atoms: _518  and  _519
REMARK  213  A    between atoms: _519  and  _520
REMARK  214  A    between atoms: _529  and  _531
REMARK  215  A    between atoms: _531  and  _532
REMARK  216  A    between atoms: _531  and  _534
REMARK  217  A    between atoms: _534  and  _535
REMARK  218  A    between atoms: _537  and  _539
REMARK  219  A    between atoms: _539  and  _540
REMARK  220  A    between atoms: _539  and  _542
REMARK  221  A    between atoms: _542  and  _543
REMARK  222  A    between atoms: _543  and  _544
REMARK  223  A    between atoms: _549  and  _551
REMARK  224  A    between atoms: _551  and  _552
REMARK  225  A    between atoms: _551  and  _554
REMARK  226  A    between atoms: _554  and  _555
REMARK  227  A    between atoms: _557  and  _559
REMARK  228  A    between atoms: _559  and  _560
REMARK  229  A    between atoms: _559  and  _562
REMARK  230  A    between atoms: _562  and  _563
REMARK  231  A    between atoms: _565  and  _567
REMARK  232  A    between atoms: _567  and  _568
REMARK  233  A    between atoms: _567  and  _570
REMARK  234  A    between atoms: _570  and  _571
REMARK  235  A    between atoms: _574  and  _576
REMARK  236  A    between atoms: _576  and  _577
REMARK  237  A    between atoms: _576  and  _579
REMARK  238  A    between atoms: _579  and  _580
REMARK  239  A    between atoms: _583  and  _585
REMARK  240  A    between atoms: _585  and  _586
REMARK  241  A    between atoms: _585  and  _588
REMARK  242  A    between atoms: _591  and  _593
REMARK  243  A    between atoms: _593  and  _594
REMARK  244  A    between atoms: _596  and  _598
REMARK  245  A    between atoms: _598  and  _599
REMARK  246  A    between atoms: _602  and  _604
REMARK  247  A    between atoms: _604  and  _605
REMARK  248  A    between atoms: _604  and  _607
REMARK                            x       y       z     vdW  Elec       q    Type
REMARK                         _______ _______ _______ _____ _____    ______ ____
ROOT
ATOM      1  O   HOH     1      21.153  18.253  29.880  0.00  0.00    +0.000 OA
ENDROOT
TORSDOF 0
REMARK  Name = ../refined-set-2016/2qmg/2qmg_pocket.pdb
REMARK  248 active torsions:
REMARK  status: ('A' for Active; 'I' for Inactive)
REMARK    1  A    between atoms: _1  and  _3
REMARK    2  A    between atoms: _3  and  _4
REMARK    3  A    between atoms: _3  and  _6
REMARK    4  A    between atoms: _6  and  _7
REMARK    5  A    between atoms: _7  and  _8
REMARK    6  A    between atoms: _8  and  _9
REMARK    7  A    between atoms: _9  and  _10
REMARK    8  A    between atoms: _14  and  _16
REMARK    9  A    between atoms: _16  and  _17
REMARK   10  A    between atoms: _16  and  _19
REMARK   11  A    between atoms: _19  and  _20
REMARK   12  A    between atoms: _22  and  _24
REMARK   13  A    between atoms: _24  and  _25
REMARK   14  A    between atoms: _27  and  _29
REMARK   15  A    between atoms: _29  and  _30
REMARK   16  A    between atoms: _29  and  _32
REMARK   17  A    between atoms: _32  and  _33
REMARK   18  A    between atoms: _33  and  _34
REMARK   19  A    between atoms: _39  and  _41
REMARK   20  A    between atoms: _41  and  _42
REMARK   21  A    between atoms: _44  and  _46
REMARK   22  A    between atoms: _46  and  _47
REMARK   23  A    between atoms: _46  and  _49
REMARK   24  A    between atoms: _49  and  _50
REMARK   25  A    between atoms: _55  and  _56
REMARK   26  A    between atoms: _58  and  _60
REMARK   27  A    between atoms: _60  and  _61
REMARK   28  A    between atoms: _60  and  _63
REMARK   29  A    between atoms: _63  and  _64
REMARK   30  A    between atoms: _67  and  _69
REMARK   31  A    between atoms: _69  and  _70
REMARK   32  A    between atoms: _69  and  _72
REMARK   33  A    between atoms: _75  and  _77
REMARK   34  A    between atoms: _77  and  _78
REMARK   35  A    between atoms: _77  and  _80
REMARK   36  A    between atoms: _80  and  _81
REMARK   37  A    between atoms: _84  and  _86
REMARK   38  A    between atoms: _86  and  _87
REMARK   39  A    between atoms: _86  and  _89
REMARK   40  A    between atoms: _89  and  _90
REMARK   41  A    between atoms: _93  and  _95
REMARK   42  A    between atoms: _95  and  _96
REMARK   43  A    between atoms: _98  and  _100
REMARK   44  A    between atoms: _100  and  _101
REMARK   45  A    between atoms: _100  and  _103
REMARK   46  A    between atoms: _103  and  _104
REMARK   47  A    between atoms: _106  and  _108
REMARK   48  A    between atoms: _108  and  _109
REMARK   49  A    between atoms: _108  and  _111
REMARK   50  A    between atoms: _111  and  _112
REMARK   51  A    between atoms: _114  and  _116
REMARK   52  A    between atoms: _116  and  _117
REMARK   53  A    between atoms: _116  and  _119
REMARK   54  A    between atoms: _119  and  _120
REMARK   55  A    between atoms: _125  and  _127
REMARK   56  A    between atoms: _127  and  _128
REMARK   57  A    between atoms: _127  and  _130
REMARK   58  A    between atoms: _130  and  _131
REMARK   59  A    between atoms: _136  and  _137
REMARK   60  A    between atoms: _139  and  _141
REMARK   61  A    between atoms: _141  and  _142
REMARK   62  A    between atoms: _141  and  _144
REMARK   63  A    between atoms: _148  and  _149
REMARK   64  A    between atoms: _154  and  _156
REMARK   65  A    between atoms: _156  and  _157
REMARK   66  A    between atoms: _156  and  _159
REMARK   67  A    between atoms: _159  and  _160
REMARK   68  A    between atoms: _165  and  _166
REMARK   69  A    between atoms: _168  and  _170
REMARK   70  A    between atoms: _170  and  _171
REMARK   71  A    between atoms: _170  and  _173
REMARK   72  A    between atoms: _173  and  _174
REMARK   73  A    between atoms: _177  and  _179
REMARK   74  A    between atoms: _179  and  _180
REMARK   75  A    between atoms: _179  and  _182
REMARK   76  A    between atoms: _182  and  _183
REMARK   77  A    between atoms: _183  and  _184
REMARK   78  A    between atoms: _189  and  _191
REMARK   79  A    between atoms: _191  and  _192
REMARK   80  A    between atoms: _194  and  _196
REMARK   81  A    between atoms: _196  and  _197
REMARK   82  A    between atoms: _196  and  _199
REMARK   83  A    between atoms: _199  and  _200
REMARK   84  A    between atoms: _200  and  _201
REMARK   85  A    between atoms: _201  and  _202
REMARK   86  A    between atoms: _202  and  _203
REMARK   87  A    between atoms: _207  and  _209
REMARK   88  A    between atoms: _209  and  _210
REMARK   89  A    between atoms: _209  and  _212
REMARK   90  A    between atoms: _212  and  _213
REMARK   91  A    between atoms: _223  and  _225
REMARK   92  A    between atoms: _225  and  _226
REMARK   93  A    between atoms: _225  and  _228
REMARK   94  A    between atoms: _228  and  _229
REMARK   95  A    between atoms: _232  and  _234
REMARK   96  A    between atoms: _234  and  _235
REMARK   97  A    between atoms: _234  and  _237
REMARK   98  A    between atoms: _237  and  _238
REMARK   99  A    between atoms: _238  and  _239
REMARK  100  A    between atoms: _239  and  _240
REMARK  101  A    between atoms: _240  and  _241
REMARK  102  A    between atoms: _245  and  _247
REMARK  103  A    between atoms: _247  and  _248
REMARK  104  A    between atoms: _247  and  _250
REMARK  105  A    between atoms: _250  and  _251
REMARK  106  A    between atoms: _257  and  _259
REMARK  107  A    between atoms: _259  and  _260
REMARK  108  A    between atoms: _259  and  _262
REMARK  109  A    between atoms: _262  and  _263
REMARK  110  A    between atoms: _269  and  _271
REMARK  111  A    between atoms: _271  and  _272
REMARK  112  A    between atoms: _271  and  _274
REMARK  113  A    between atoms: _274  and  _275
REMARK  114  A    between atoms: _278  and  _280
REMARK  115  A    between atoms: _280  and  _281
REMARK  116  A    between atoms: _280  and  _283
REMARK  117  A    between atoms: _283  and  _284
REMARK  118  A    between atoms: _286  and  _288
REMARK  119  A    between atoms: _288  and  _289
REMARK  120  A    between atoms: _288  and  _291
REMARK  121  A    between atoms: _291  and  _292
REMARK  122  A    between atoms: _302  and  _304
REMARK  123  A    between atoms: _304  and  _305
REMARK  124  A    between atoms: _307  and  _309
REMARK  125  A    between atoms: _309  and  _310
REMARK  126  A    between atoms: _309  and  _312
REMARK  127  A    between atoms: _312  and  _313
REMARK  128  A    between atoms: _316  and  _318
REMARK  129  A    between atoms: _318  and  _319
REMARK  130  A    between atoms: _318  and  _321
REMARK  131  A    between atoms: _321  and  _322
REMARK  132  A    between atoms: _325  and  _327
REMARK  133  A    between atoms: _327  and  _328
REMARK  134  A    between atoms: _330  and  _332
REMARK  135  A    between atoms: _332  and  _333
REMARK  136  A    between atoms: _332  and  _335
REMARK  137  A    between atoms: _335  and  _336
REMARK  138  A    between atoms: _339  and  _341
REMARK  139  A    between atoms: _341  and  _342
REMARK  140  A    between atoms: _345  and  _347
REMARK  141  A    between atoms: _347  and  _348
REMARK  142  A    between atoms: _347  and  _350
REMARK  143  A    between atoms: _350  and  _351
REMARK  144  A    between atoms: _354  and  _356
REMARK  145  A    between atoms: _356  and  _357
REMARK  146  A    between atoms: _360  and  _362
REMARK  147  A    between atoms: _362  and  _363
REMARK  148  A    between atoms: _362  and  _365
REMARK  149  A    between atoms: _365  and  _366
REMARK  150  A    between atoms: _366  and  _367
REMARK  151  A    between atoms: _367  and  _368
REMARK  152  A    between atoms: _377  and  _379
REMARK  153  A    between atoms: _379  and  _380
REMARK  154  A    between atoms: _379  and  _382
REMARK  155  A    between atoms: _382  and  _383
REMARK  156  A    between atoms: _386  and  _388
REMARK  157  A    between atoms: _388  and  _389
REMARK  158  A    between atoms: _388  and  _391
REMARK  159  A    between atoms: _391  and  _392
REMARK  160  A    between atoms: _397  and  _398
REMARK  161  A    between atoms: _400  and  _402
REMARK  162  A    between atoms: _402  and  _403
REMARK  163  A    between atoms: _402  and  _405
REMARK  164  A    between atoms: _405  and  _406
REMARK  165  A    between atoms: _411  and  _412
REMARK  166  A    between atoms: _414  and  _416
REMARK  167  A    between atoms: _416  and  _417
REMARK  168  A    between atoms: _416  and  _419
REMARK  169  A    between atoms: _419  and  _420
REMARK  170  A    between atoms: _420  and  _421
REMARK  171  A    between atoms: _421  and  _422
REMARK  172  A    between atoms: _422  and  _423
REMARK  173  A    between atoms: _427  and  _429
REMARK  174  A    between atoms: _429  and  _430
REMARK  175  A    between atoms: _429  and  _432
REMARK  176  A    between atoms: _432  and  _433
REMARK  177  A    between atoms: _436  and  _438
REMARK  178  A    between atoms: _438  and  _439
REMARK  179  A    between atoms: _438  and  _441
REMARK  180  A    between atoms: _444  and  _446
REMARK  181  A    between atoms: _446  and  _447
REMARK  182  A    between atoms: _446  and  _449
REMARK  183  A    between atoms: _449  and  _450
REMARK  184  A    between atoms: _453  and  _455
REMARK  185  A    between atoms: _455  and  _456
REMARK  186  A    between atoms: _455  and  _458
REMARK  187  A    between atoms: _458  and  _459
REMARK  188  A    between atoms: _461  and  _463
REMARK  189  A    between atoms: _463  and  _464
REMARK  190  A    between atoms: _466  and  _468
REMARK  191  A    between atoms: _468  and  _469
REMARK  192  A    between atoms: _468  and  _471
REMARK  193  A    between atoms: _471  and  _472
REMARK  194  A    between atoms: _475  and  _477
REMARK  195  A    between atoms: _477  and  _478
REMARK  196  A    between atoms: _477  and  _480
REMARK  197  A    between atoms: _480  and  _481
REMARK  198  A    between atoms: _484  and  _486
REMARK  199  A    between atoms: _486  and  _487
REMARK  200  A    between atoms: _486  and  _489
REMARK  201  A    between atoms: _489  and  _490
REMARK  202  A    between atoms: _495  and  _497
REMARK  203  A    between atoms: _497  and  _498
REMARK  204  A    between atoms: _497  and  _500
REMARK  205  A    between atoms: _500  and  _501
REMARK  206  A    between atoms: _501  and  _502
REMARK  207  A    between atoms: _502  and  _503
REMARK  208  A    between atoms: _512  and  _514
REMARK  209  A    between atoms: _514  and  _515
REMARK  210  A    between atoms: _514  and  _517
REMARK  211  A    between atoms: _517  and  _518
REMARK  212  A    between atoms: _518  and  _519
REMARK  213  A    between atoms: _519  and  _520
REMARK  214  A    between atoms: _529  and  _531
REMARK  215  A    between atoms: _531  and  _532
REMARK  216  A    between atoms: _531  and  _534
REMARK  217  A    between atoms: _534  and  _535
REMARK  218  A    between atoms: _537  and  _539
REMARK  219  A    between atoms: _539  and  _540
REMARK  220  A    between atoms: _539  and  _542
REMARK  221  A    between atoms: _542  and  _543
REMARK  222  A    between atoms: _543  and  _544
REMARK  223  A    between atoms: _549  and  _551
REMARK  224  A    between atoms: _551  and  _552
REMARK  225  A    between atoms: _551  and  _554
REMARK  226  A    between atoms: _554  and  _555
REMARK  227  A    between atoms: _557  and  _559
REMARK  228  A    between atoms: _559  and  _560
REMARK  229  A    between atoms: _559  and  _562
REMARK  230  A    between atoms: _562  and  _563
REMARK  231  A    between atoms: _565  and  _567
REMARK  232  A    between atoms: _567  and  _568
REMARK  233  A    between atoms: _567  and  _570
REMARK  234  A    between atoms: _570  and  _571
REMARK  235  A    between atoms: _574  and  _576
REMARK  236  A    between atoms: _576  and  _577
REMARK  237  A    between atoms: _576  and  _579
REMARK  238  A    between atoms: _579  and  _580
REMARK  239  A    between atoms: _583  and  _585
REMARK  240  A    between atoms: _585  and  _586
REMARK  241  A    between atoms: _585  and  _588
REMARK  242  A    between atoms: _591  and  _593
REMARK  243  A    between atoms: _593  and  _594
REMARK  244  A    between atoms: _596  and  _598
REMARK  245  A    between atoms: _598  and  _599
REMARK  246  A    between atoms: _602  and  _604
REMARK  247  A    between atoms: _604  and  _605
REMARK  248  A    between atoms: _604  and  _607
REMARK                            x       y       z     vdW  Elec       q    Type
REMARK                         _______ _______ _______ _____ _____    ______ ____
ROOT
ATOM      1  O   HOH     1      13.959  12.292  30.090  0.00  0.00    +0.000 OA
ENDROOT
TORSDOF 0
REMARK  Name = ../refined-set-2016/2qmg/2qmg_pocket.pdb
REMARK  248 active torsions:
REMARK  status: ('A' for Active; 'I' for Inactive)
REMARK    1  A    between atoms: _1  and  _3
REMARK    2  A    between atoms: _3  and  _4
REMARK    3  A    between atoms: _3  and  _6
REMARK    4  A    between atoms: _6  and  _7
REMARK    5  A    between atoms: _7  and  _8
REMARK    6  A    between atoms: _8  and  _9
REMARK    7  A    between atoms: _9  and  _10
REMARK    8  A    between atoms: _14  and  _16
REMARK    9  A    between atoms: _16  and  _17
REMARK   10  A    between atoms: _16  and  _19
REMARK   11  A    between atoms: _19  and  _20
REMARK   12  A    between atoms: _22  and  _24
REMARK   13  A    between atoms: _24  and  _25
REMARK   14  A    between atoms: _27  and  _29
REMARK   15  A    between atoms: _29  and  _30
REMARK   16  A    between atoms: _29  and  _32
REMARK   17  A    between atoms: _32  and  _33
REMARK   18  A    between atoms: _33  and  _34
REMARK   19  A    between atoms: _39  and  _41
REMARK   20  A    between atoms: _41  and  _42
REMARK   21  A    between atoms: _44  and  _46
REMARK   22  A    between atoms: _46  and  _47
REMARK   23  A    between atoms: _46  and  _49
REMARK   24  A    between atoms: _49  and  _50
REMARK   25  A    between atoms: _55  and  _56
REMARK   26  A    between atoms: _58  and  _60
REMARK   27  A    between atoms: _60  and  _61
REMARK   28  A    between atoms: _60  and  _63
REMARK   29  A    between atoms: _63  and  _64
REMARK   30  A    between atoms: _67  and  _69
REMARK   31  A    between atoms: _69  and  _70
REMARK   32  A    between atoms: _69  and  _72
REMARK   33  A    between atoms: _75  and  _77
REMARK   34  A    between atoms: _77  and  _78
REMARK   35  A    between atoms: _77  and  _80
REMARK   36  A    between atoms: _80  and  _81
REMARK   37  A    between atoms: _84  and  _86
REMARK   38  A    between atoms: _86  and  _87
REMARK   39  A    between atoms: _86  and  _89
REMARK   40  A    between atoms: _89  and  _90
REMARK   41  A    between atoms: _93  and  _95
REMARK   42  A    between atoms: _95  and  _96
REMARK   43  A    between atoms: _98  and  _100
REMARK   44  A    between atoms: _100  and  _101
REMARK   45  A    between atoms: _100  and  _103
REMARK   46  A    between atoms: _103  and  _104
REMARK   47  A    between atoms: _106  and  _108
REMARK   48  A    between atoms: _108  and  _109
REMARK   49  A    between atoms: _108  and  _111
REMARK   50  A    between atoms: _111  and  _112
REMARK   51  A    between atoms: _114  and  _116
REMARK   52  A    between atoms: _116  and  _117
REMARK   53  A    between atoms: _116  and  _119
REMARK   54  A    between atoms: _119  and  _120
REMARK   55  A    between atoms: _125  and  _127
REMARK   56  A    between atoms: _127  and  _128
REMARK   57  A    between atoms: _127  and  _130
REMARK   58  A    between atoms: _130  and  _131
REMARK   59  A    between atoms: _136  and  _137
REMARK   60  A    between atoms: _139  and  _141
REMARK   61  A    between atoms: _141  and  _142
REMARK   62  A    between atoms: _141  and  _144
REMARK   63  A    between atoms: _148  and  _149
REMARK   64  A    between atoms: _154  and  _156
REMARK   65  A    between atoms: _156  and  _157
REMARK   66  A    between atoms: _156  and  _159
REMARK   67  A    between atoms: _159  and  _160
REMARK   68  A    between atoms: _165  and  _166
REMARK   69  A    between atoms: _168  and  _170
REMARK   70  A    between atoms: _170  and  _171
REMARK   71  A    between atoms: _170  and  _173
REMARK   72  A    between atoms: _173  and  _174
REMARK   73  A    between atoms: _177  and  _179
REMARK   74  A    between atoms: _179  and  _180
REMARK   75  A    between atoms: _179  and  _182
REMARK   76  A    between atoms: _182  and  _183
REMARK   77  A    between atoms: _183  and  _184
REMARK   78  A    between atoms: _189  and  _191
REMARK   79  A    between atoms: _191  and  _192
REMARK   80  A    between atoms: _194  and  _196
REMARK   81  A    between atoms: _196  and  _197
REMARK   82  A    between atoms: _196  and  _199
REMARK   83  A    between atoms: _199  and  _200
REMARK   84  A    between atoms: _200  and  _201
REMARK   85  A    between atoms: _201  and  _202
REMARK   86  A    between atoms: _202  and  _203
REMARK   87  A    between atoms: _207  and  _209
REMARK   88  A    between atoms: _209  and  _210
REMARK   89  A    between atoms: _209  and  _212
REMARK   90  A    between atoms: _212  and  _213
REMARK   91  A    between atoms: _223  and  _225
REMARK   92  A    between atoms: _225  and  _226
REMARK   93  A    between atoms: _225  and  _228
REMARK   94  A    between atoms: _228  and  _229
REMARK   95  A    between atoms: _232  and  _234
REMARK   96  A    between atoms: _234  and  _235
REMARK   97  A    between atoms: _234  and  _237
REMARK   98  A    between atoms: _237  and  _238
REMARK   99  A    between atoms: _238  and  _239
REMARK  100  A    between atoms: _239  and  _240
REMARK  101  A    between atoms: _240  and  _241
REMARK  102  A    between atoms: _245  and  _247
REMARK  103  A    between atoms: _247  and  _248
REMARK  104  A    between atoms: _247  and  _250
REMARK  105  A    between atoms: _250  and  _251
REMARK  106  A    between atoms: _257  and  _259
REMARK  107  A    between atoms: _259  and  _260
REMARK  108  A    between atoms: _259  and  _262
REMARK  109  A    between atoms: _262  and  _263
REMARK  110  A    between atoms: _269  and  _271
REMARK  111  A    between atoms: _271  and  _272
REMARK  112  A    between atoms: _271  and  _274
REMARK  113  A    between atoms: _274  and  _275
REMARK  114  A    between atoms: _278  and  _280
REMARK  115  A    between atoms: _280  and  _281
REMARK  116  A    between atoms: _280  and  _283
REMARK  117  A    between atoms: _283  and  _284
REMARK  118  A    between atoms: _286  and  _288
REMARK  119  A    between atoms: _288  and  _289
REMARK  120  A    between atoms: _288  and  _291
REMARK  121  A    between atoms: _291  and  _292
REMARK  122  A    between atoms: _302  and  _304
REMARK  123  A    between atoms: _304  and  _305
REMARK  124  A    between atoms: _307  and  _309
REMARK  125  A    between atoms: _309  and  _310
REMARK  126  A    between atoms: _309  and  _312
REMARK  127  A    between atoms: _312  and  _313
REMARK  128  A    between atoms: _316  and  _318
REMARK  129  A    between atoms: _318  and  _319
REMARK  130  A    between atoms: _318  and  _321
REMARK  131  A    between atoms: _321  and  _322
REMARK  132  A    between atoms: _325  and  _327
REMARK  133  A    between atoms: _327  and  _328
REMARK  134  A    between atoms: _330  and  _332
REMARK  135  A    between atoms: _332  and  _333
REMARK  136  A    between atoms: _332  and  _335
REMARK  137  A    between atoms: _335  and  _336
REMARK  138  A    between atoms: _339  and  _341
REMARK  139  A    between atoms: _341  and  _342
REMARK  140  A    between atoms: _345  and  _347
REMARK  141  A    between atoms: _347  and  _348
REMARK  142  A    between atoms: _347  and  _350
REMARK  143  A    between atoms: _350  and  _351
REMARK  144  A    between atoms: _354  and  _356
REMARK  145  A    between atoms: _356  and  _357
REMARK  146  A    between atoms: _360  and  _362
REMARK  147  A    between atoms: _362  and  _363
REMARK  148  A    between atoms: _362  and  _365
REMARK  149  A    between atoms: _365  and  _366
REMARK  150  A    between atoms: _366  and  _367
REMARK  151  A    between atoms: _367  and  _368
REMARK  152  A    between atoms: _377  and  _379
REMARK  153  A    between atoms: _379  and  _380
REMARK  154  A    between atoms: _379  and  _382
REMARK  155  A    between atoms: _382  and  _383
REMARK  156  A    between atoms: _386  and  _388
REMARK  157  A    between atoms: _388  and  _389
REMARK  158  A    between atoms: _388  and  _391
REMARK  159  A    between atoms: _391  and  _392
REMARK  160  A    between atoms: _397  and  _398
REMARK  161  A    between atoms: _400  and  _402
REMARK  162  A    between atoms: _402  and  _403
REMARK  163  A    between atoms: _402  and  _405
REMARK  164  A    between atoms: _405  and  _406
REMARK  165  A    between atoms: _411  and  _412
REMARK  166  A    between atoms: _414  and  _416
REMARK  167  A    between atoms: _416  and  _417
REMARK  168  A    between atoms: _416  and  _419
REMARK  169  A    between atoms: _419  and  _420
REMARK  170  A    between atoms: _420  and  _421
REMARK  171  A    between atoms: _421  and  _422
REMARK  172  A    between atoms: _422  and  _423
REMARK  173  A    between atoms: _427  and  _429
REMARK  174  A    between atoms: _429  and  _430
REMARK  175  A    between atoms: _429  and  _432
REMARK  176  A    between atoms: _432  and  _433
REMARK  177  A    between atoms: _436  and  _438
REMARK  178  A    between atoms: _438  and  _439
REMARK  179  A    between atoms: _438  and  _441
REMARK  180  A    between atoms: _444  and  _446
REMARK  181  A    between atoms: _446  and  _447
REMARK  182  A    between atoms: _446  and  _449
REMARK  183  A    between atoms: _449  and  _450
REMARK  184  A    between atoms: _453  and  _455
REMARK  185  A    between atoms: _455  and  _456
REMARK  186  A    between atoms: _455  and  _458
REMARK  187  A    between atoms: _458  and  _459
REMARK  188  A    between atoms: _461  and  _463
REMARK  189  A    between atoms: _463  and  _464
REMARK  190  A    between atoms: _466  and  _468
REMARK  191  A    between atoms: _468  and  _469
REMARK  192  A    between atoms: _468  and  _471
REMARK  193  A    between atoms: _471  and  _472
REMARK  194  A    between atoms: _475  and  _477
REMARK  195  A    between atoms: _477  and  _478
REMARK  196  A    between atoms: _477  and  _480
REMARK  197  A    between atoms: _480  and  _481
REMARK  198  A    between atoms: _484  and  _486
REMARK  199  A    between atoms: _486  and  _487
REMARK  200  A    between atoms: _486  and  _489
REMARK  201  A    between atoms: _489  and  _490
REMARK  202  A    between atoms: _495  and  _497
REMARK  203  A    between atoms: _497  and  _498
REMARK  204  A    between atoms: _497  and  _500
REMARK  205  A    between atoms: _500  and  _501
REMARK  206  A    between atoms: _501  and  _502
REMARK  207  A    between atoms: _502  and  _503
REMARK  208  A    between atoms: _512  and  _514
REMARK  209  A    between atoms: _514  and  _515
REMARK  210  A    between atoms: _514  and  _517
REMARK  211  A    between atoms: _517  and  _518
REMARK  212  A    between atoms: _518  and  _519
REMARK  213  A    between atoms: _519  and  _520
REMARK  214  A    between atoms: _529  and  _531
REMARK  215  A    between atoms: _531  and  _532
REMARK  216  A    between atoms: _531  and  _534
REMARK  217  A    between atoms: _534  and  _535
REMARK  218  A    between atoms: _537  and  _539
REMARK  219  A    between atoms: _539  and  _540
REMARK  220  A    between atoms: _539  and  _542
REMARK  221  A    between atoms: _542  and  _543
REMARK  222  A    between atoms: _543  and  _544
REMARK  223  A    between atoms: _549  and  _551
REMARK  224  A    between atoms: _551  and  _552
REMARK  225  A    between atoms: _551  and  _554
REMARK  226  A    between atoms: _554  and  _555
REMARK  227  A    between atoms: _557  and  _559
REMARK  228  A    between atoms: _559  and  _560
REMARK  229  A    between atoms: _559  and  _562
REMARK  230  A    between atoms: _562  and  _563
REMARK  231  A    between atoms: _565  and  _567
REMARK  232  A    between atoms: _567  and  _568
REMARK  233  A    between atoms: _567  and  _570
REMARK  234  A    between atoms: _570  and  _571
REMARK  235  A    between atoms: _574  and  _576
REMARK  236  A    between atoms: _576  and  _577
REMARK  237  A    between atoms: _576  and  _579
REMARK  238  A    between atoms: _579  and  _580
REMARK  239  A    between atoms: _583  and  _585
REMARK  240  A    between atoms: _585  and  _586
REMARK  241  A    between atoms: _585  and  _588
REMARK  242  A    between atoms: _591  and  _593
REMARK  243  A    between atoms: _593  and  _594
REMARK  244  A    between atoms: _596  and  _598
REMARK  245  A    between atoms: _598  and  _599
REMARK  246  A    between atoms: _602  and  _604
REMARK  247  A    between atoms: _604  and  _605
REMARK  248  A    between atoms: _604  and  _607
REMARK                            x       y       z     vdW  Elec       q    Type
REMARK                         _______ _______ _______ _____ _____    ______ ____
ROOT
ATOM      1  O   HOH     1      15.105  14.856  30.567  0.00  0.00    +0.000 OA
ENDROOT
TORSDOF 0
REMARK  Name = ../refined-set-2016/2qmg/2qmg_pocket.pdb
REMARK  248 active torsions:
REMARK  status: ('A' for Active; 'I' for Inactive)
REMARK    1  A    between atoms: _1  and  _3
REMARK    2  A    between atoms: _3  and  _4
REMARK    3  A    between atoms: _3  and  _6
REMARK    4  A    between atoms: _6  and  _7
REMARK    5  A    between atoms: _7  and  _8
REMARK    6  A    between atoms: _8  and  _9
REMARK    7  A    between atoms: _9  and  _10
REMARK    8  A    between atoms: _14  and  _16
REMARK    9  A    between atoms: _16  and  _17
REMARK   10  A    between atoms: _16  and  _19
REMARK   11  A    between atoms: _19  and  _20
REMARK   12  A    between atoms: _22  and  _24
REMARK   13  A    between atoms: _24  and  _25
REMARK   14  A    between atoms: _27  and  _29
REMARK   15  A    between atoms: _29  and  _30
REMARK   16  A    between atoms: _29  and  _32
REMARK   17  A    between atoms: _32  and  _33
REMARK   18  A    between atoms: _33  and  _34
REMARK   19  A    between atoms: _39  and  _41
REMARK   20  A    between atoms: _41  and  _42
REMARK   21  A    between atoms: _44  and  _46
REMARK   22  A    between atoms: _46  and  _47
REMARK   23  A    between atoms: _46  and  _49
REMARK   24  A    between atoms: _49  and  _50
REMARK   25  A    between atoms: _55  and  _56
REMARK   26  A    between atoms: _58  and  _60
REMARK   27  A    between atoms: _60  and  _61
REMARK   28  A    between atoms: _60  and  _63
REMARK   29  A    between atoms: _63  and  _64
REMARK   30  A    between atoms: _67  and  _69
REMARK   31  A    between atoms: _69  and  _70
REMARK   32  A    between atoms: _69  and  _72
REMARK   33  A    between atoms: _75  and  _77
REMARK   34  A    between atoms: _77  and  _78
REMARK   35  A    between atoms: _77  and  _80
REMARK   36  A    between atoms: _80  and  _81
REMARK   37  A    between atoms: _84  and  _86
REMARK   38  A    between atoms: _86  and  _87
REMARK   39  A    between atoms: _86  and  _89
REMARK   40  A    between atoms: _89  and  _90
REMARK   41  A    between atoms: _93  and  _95
REMARK   42  A    between atoms: _95  and  _96
REMARK   43  A    between atoms: _98  and  _100
REMARK   44  A    between atoms: _100  and  _101
REMARK   45  A    between atoms: _100  and  _103
REMARK   46  A    between atoms: _103  and  _104
REMARK   47  A    between atoms: _106  and  _108
REMARK   48  A    between atoms: _108  and  _109
REMARK   49  A    between atoms: _108  and  _111
REMARK   50  A    between atoms: _111  and  _112
REMARK   51  A    between atoms: _114  and  _116
REMARK   52  A    between atoms: _116  and  _117
REMARK   53  A    between atoms: _116  and  _119
REMARK   54  A    between atoms: _119  and  _120
REMARK   55  A    between atoms: _125  and  _127
REMARK   56  A    between atoms: _127  and  _128
REMARK   57  A    between atoms: _127  and  _130
REMARK   58  A    between atoms: _130  and  _131
REMARK   59  A    between atoms: _136  and  _137
REMARK   60  A    between atoms: _139  and  _141
REMARK   61  A    between atoms: _141  and  _142
REMARK   62  A    between atoms: _141  and  _144
REMARK   63  A    between atoms: _148  and  _149
REMARK   64  A    between atoms: _154  and  _156
REMARK   65  A    between atoms: _156  and  _157
REMARK   66  A    between atoms: _156  and  _159
REMARK   67  A    between atoms: _159  and  _160
REMARK   68  A    between atoms: _165  and  _166
REMARK   69  A    between atoms: _168  and  _170
REMARK   70  A    between atoms: _170  and  _171
REMARK   71  A    between atoms: _170  and  _173
REMARK   72  A    between atoms: _173  and  _174
REMARK   73  A    between atoms: _177  and  _179
REMARK   74  A    between atoms: _179  and  _180
REMARK   75  A    between atoms: _179  and  _182
REMARK   76  A    between atoms: _182  and  _183
REMARK   77  A    between atoms: _183  and  _184
REMARK   78  A    between atoms: _189  and  _191
REMARK   79  A    between atoms: _191  and  _192
REMARK   80  A    between atoms: _194  and  _196
REMARK   81  A    between atoms: _196  and  _197
REMARK   82  A    between atoms: _196  and  _199
REMARK   83  A    between atoms: _199  and  _200
REMARK   84  A    between atoms: _200  and  _201
REMARK   85  A    between atoms: _201  and  _202
REMARK   86  A    between atoms: _202  and  _203
REMARK   87  A    between atoms: _207  and  _209
REMARK   88  A    between atoms: _209  and  _210
REMARK   89  A    between atoms: _209  and  _212
REMARK   90  A    between atoms: _212  and  _213
REMARK   91  A    between atoms: _223  and  _225
REMARK   92  A    between atoms: _225  and  _226
REMARK   93  A    between atoms: _225  and  _228
REMARK   94  A    between atoms: _228  and  _229
REMARK   95  A    between atoms: _232  and  _234
REMARK   96  A    between atoms: _234  and  _235
REMARK   97  A    between atoms: _234  and  _237
REMARK   98  A    between atoms: _237  and  _238
REMARK   99  A    between atoms: _238  and  _239
REMARK  100  A    between atoms: _239  and  _240
REMARK  101  A    between atoms: _240  and  _241
REMARK  102  A    between atoms: _245  and  _247
REMARK  103  A    between atoms: _247  and  _248
REMARK  104  A    between atoms: _247  and  _250
REMARK  105  A    between atoms: _250  and  _251
REMARK  106  A    between atoms: _257  and  _259
REMARK  107  A    between atoms: _259  and  _260
REMARK  108  A    between atoms: _259  and  _262
REMARK  109  A    between atoms: _262  and  _263
REMARK  110  A    between atoms: _269  and  _271
REMARK  111  A    between atoms: _271  and  _272
REMARK  112  A    between atoms: _271  and  _274
REMARK  113  A    between atoms: _274  and  _275
REMARK  114  A    between atoms: _278  and  _280
REMARK  115  A    between atoms: _280  and  _281
REMARK  116  A    between atoms: _280  and  _283
REMARK  117  A    between atoms: _283  and  _284
REMARK  118  A    between atoms: _286  and  _288
REMARK  119  A    between atoms: _288  and  _289
REMARK  120  A    between atoms: _288  and  _291
REMARK  121  A    between atoms: _291  and  _292
REMARK  122  A    between atoms: _302  and  _304
REMARK  123  A    between atoms: _304  and  _305
REMARK  124  A    between atoms: _307  and  _309
REMARK  125  A    between atoms: _309  and  _310
REMARK  126  A    between atoms: _309  and  _312
REMARK  127  A    between atoms: _312  and  _313
REMARK  128  A    between atoms: _316  and  _318
REMARK  129  A    between atoms: _318  and  _319
REMARK  130  A    between atoms: _318  and  _321
REMARK  131  A    between atoms: _321  and  _322
REMARK  132  A    between atoms: _325  and  _327
REMARK  133  A    between atoms: _327  and  _328
REMARK  134  A    between atoms: _330  and  _332
REMARK  135  A    between atoms: _332  and  _333
REMARK  136  A    between atoms: _332  and  _335
REMARK  137  A    between atoms: _335  and  _336
REMARK  138  A    between atoms: _339  and  _341
REMARK  139  A    between atoms: _341  and  _342
REMARK  140  A    between atoms: _345  and  _347
REMARK  141  A    between atoms: _347  and  _348
REMARK  142  A    between atoms: _347  and  _350
REMARK  143  A    between atoms: _350  and  _351
REMARK  144  A    between atoms: _354  and  _356
REMARK  145  A    between atoms: _356  and  _357
REMARK  146  A    between atoms: _360  and  _362
REMARK  147  A    between atoms: _362  and  _363
REMARK  148  A    between atoms: _362  and  _365
REMARK  149  A    between atoms: _365  and  _366
REMARK  150  A    between atoms: _366  and  _367
REMARK  151  A    between atoms: _367  and  _368
REMARK  152  A    between atoms: _377  and  _379
REMARK  153  A    between atoms: _379  and  _380
REMARK  154  A    between atoms: _379  and  _382
REMARK  155  A    between atoms: _382  and  _383
REMARK  156  A    between atoms: _386  and  _388
REMARK  157  A    between atoms: _388  and  _389
REMARK  158  A    between atoms: _388  and  _391
REMARK  159  A    between atoms: _391  and  _392
REMARK  160  A    between atoms: _397  and  _398
REMARK  161  A    between atoms: _400  and  _402
REMARK  162  A    between atoms: _402  and  _403
REMARK  163  A    between atoms: _402  and  _405
REMARK  164  A    between atoms: _405  and  _406
REMARK  165  A    between atoms: _411  and  _412
REMARK  166  A    between atoms: _414  and  _416
REMARK  167  A    between atoms: _416  and  _417
REMARK  168  A    between atoms: _416  and  _419
REMARK  169  A    between atoms: _419  and  _420
REMARK  170  A    between atoms: _420  and  _421
REMARK  171  A    between atoms: _421  and  _422
REMARK  172  A    between atoms: _422  and  _423
REMARK  173  A    between atoms: _427  and  _429
REMARK  174  A    between atoms: _429  and  _430
REMARK  175  A    between atoms: _429  and  _432
REMARK  176  A    between atoms: _432  and  _433
REMARK  177  A    between atoms: _436  and  _438
REMARK  178  A    between atoms: _438  and  _439
REMARK  179  A    between atoms: _438  and  _441
REMARK  180  A    between atoms: _444  and  _446
REMARK  181  A    between atoms: _446  and  _447
REMARK  182  A    between atoms: _446  and  _449
REMARK  183  A    between atoms: _449  and  _450
REMARK  184  A    between atoms: _453  and  _455
REMARK  185  A    between atoms: _455  and  _456
REMARK  186  A    between atoms: _455  and  _458
REMARK  187  A    between atoms: _458  and  _459
REMARK  188  A    between atoms: _461  and  _463
REMARK  189  A    between atoms: _463  and  _464
REMARK  190  A    between atoms: _466  and  _468
REMARK  191  A    between atoms: _468  and  _469
REMARK  192  A    between atoms: _468  and  _471
REMARK  193  A    between atoms: _471  and  _472
REMARK  194  A    between atoms: _475  and  _477
REMARK  195  A    between atoms: _477  and  _478
REMARK  196  A    between atoms: _477  and  _480
REMARK  197  A    between atoms: _480  and  _481
REMARK  198  A    between atoms: _484  and  _486
REMARK  199  A    between atoms: _486  and  _487
REMARK  200  A    between atoms: _486  and  _489
REMARK  201  A    between atoms: _489  and  _490
REMARK  202  A    between atoms: _495  and  _497
REMARK  203  A    between atoms: _497  and  _498
REMARK  204  A    between atoms: _497  and  _500
REMARK  205  A    between atoms: _500  and  _501
REMARK  206  A    between atoms: _501  and  _502
REMARK  207  A    between atoms: _502  and  _503
REMARK  208  A    between atoms: _512  and  _514
REMARK  209  A    between atoms: _514  and  _515
REMARK  210  A    between atoms: _514  and  _517
REMARK  211  A    between atoms: _517  and  _518
REMARK  212  A    between atoms: _518  and  _519
REMARK  213  A    between atoms: _519  and  _520
REMARK  214  A    between atoms: _529  and  _531
REMARK  215  A    between atoms: _531  and  _532
REMARK  216  A    between atoms: _531  and  _534
REMARK  217  A    between atoms: _534  and  _535
REMARK  218  A    between atoms: _537  and  _539
REMARK  219  A    between atoms: _539  and  _540
REMARK  220  A    between atoms: _539  and  _542
REMARK  221  A    between atoms: _542  and  _543
REMARK  222  A    between atoms: _543  and  _544
REMARK  223  A    between atoms: _549  and  _551
REMARK  224  A    between atoms: _551  and  _552
REMARK  225  A    between atoms: _551  and  _554
REMARK  226  A    between atoms: _554  and  _555
REMARK  227  A    between atoms: _557  and  _559
REMARK  228  A    between atoms: _559  and  _560
REMARK  229  A    between atoms: _559  and  _562
REMARK  230  A    between atoms: _562  and  _563
REMARK  231  A    between atoms: _565  and  _567
REMARK  232  A    between atoms: _567  and  _568
REMARK  233  A    between atoms: _567  and  _570
REMARK  234  A    between atoms: _570  and  _571
REMARK  235  A    between atoms: _574  and  _576
REMARK  236  A    between atoms: _576  and  _577
REMARK  237  A    between atoms: _576  and  _579
REMARK  238  A    between atoms: _579  and  _580
REMARK  239  A    between atoms: _583  and  _585
REMARK  240  A    between atoms: _585  and  _586
REMARK  241  A    between atoms: _585  and  _588
REMARK  242  A    between atoms: _591  and  _593
REMARK  243  A    between atoms: _593  and  _594
REMARK  244  A    between atoms: _596  and  _598
REMARK  245  A    between atoms: _598  and  _599
REMARK  246  A    between atoms: _602  and  _604
REMARK  247  A    between atoms: _604  and  _605
REMARK  248  A    between atoms: _604  and  _607
REMARK                            x       y       z     vdW  Elec       q    Type
REMARK                         _______ _______ _______ _____ _____    ______ ____
ROOT
ATOM      1  O   HOH     1      17.741  12.747  29.226  0.00  0.00    +0.000 OA
ENDROOT
TORSDOF 0
REMARK  Name = ../refined-set-2016/2qmg/2qmg_pocket.pdb
REMARK  248 active torsions:
REMARK  status: ('A' for Active; 'I' for Inactive)
REMARK    1  A    between atoms: _1  and  _3
REMARK    2  A    between atoms: _3  and  _4
REMARK    3  A    between atoms: _3  and  _6
REMARK    4  A    between atoms: _6  and  _7
REMARK    5  A    between atoms: _7  and  _8
REMARK    6  A    between atoms: _8  and  _9
REMARK    7  A    between atoms: _9  and  _10
REMARK    8  A    between atoms: _14  and  _16
REMARK    9  A    between atoms: _16  and  _17
REMARK   10  A    between atoms: _16  and  _19
REMARK   11  A    between atoms: _19  and  _20
REMARK   12  A    between atoms: _22  and  _24
REMARK   13  A    between atoms: _24  and  _25
REMARK   14  A    between atoms: _27  and  _29
REMARK   15  A    between atoms: _29  and  _30
REMARK   16  A    between atoms: _29  and  _32
REMARK   17  A    between atoms: _32  and  _33
REMARK   18  A    between atoms: _33  and  _34
REMARK   19  A    between atoms: _39  and  _41
REMARK   20  A    between atoms: _41  and  _42
REMARK   21  A    between atoms: _44  and  _46
REMARK   22  A    between atoms: _46  and  _47
REMARK   23  A    between atoms: _46  and  _49
REMARK   24  A    between atoms: _49  and  _50
REMARK   25  A    between atoms: _55  and  _56
REMARK   26  A    between atoms: _58  and  _60
REMARK   27  A    between atoms: _60  and  _61
REMARK   28  A    between atoms: _60  and  _63
REMARK   29  A    between atoms: _63  and  _64
REMARK   30  A    between atoms: _67  and  _69
REMARK   31  A    between atoms: _69  and  _70
REMARK   32  A    between atoms: _69  and  _72
REMARK   33  A    between atoms: _75  and  _77
REMARK   34  A    between atoms: _77  and  _78
REMARK   35  A    between atoms: _77  and  _80
REMARK   36  A    between atoms: _80  and  _81
REMARK   37  A    between atoms: _84  and  _86
REMARK   38  A    between atoms: _86  and  _87
REMARK   39  A    between atoms: _86  and  _89
REMARK   40  A    between atoms: _89  and  _90
REMARK   41  A    between atoms: _93  and  _95
REMARK   42  A    between atoms: _95  and  _96
REMARK   43  A    between atoms: _98  and  _100
REMARK   44  A    between atoms: _100  and  _101
REMARK   45  A    between atoms: _100  and  _103
REMARK   46  A    between atoms: _103  and  _104
REMARK   47  A    between atoms: _106  and  _108
REMARK   48  A    between atoms: _108  and  _109
REMARK   49  A    between atoms: _108  and  _111
REMARK   50  A    between atoms: _111  and  _112
REMARK   51  A    between atoms: _114  and  _116
REMARK   52  A    between atoms: _116  and  _117
REMARK   53  A    between atoms: _116  and  _119
REMARK   54  A    between atoms: _119  and  _120
REMARK   55  A    between atoms: _125  and  _127
REMARK   56  A    between atoms: _127  and  _128
REMARK   57  A    between atoms: _127  and  _130
REMARK   58  A    between atoms: _130  and  _131
REMARK   59  A    between atoms: _136  and  _137
REMARK   60  A    between atoms: _139  and  _141
REMARK   61  A    between atoms: _141  and  _142
REMARK   62  A    between atoms: _141  and  _144
REMARK   63  A    between atoms: _148  and  _149
REMARK   64  A    between atoms: _154  and  _156
REMARK   65  A    between atoms: _156  and  _157
REMARK   66  A    between atoms: _156  and  _159
REMARK   67  A    between atoms: _159  and  _160
REMARK   68  A    between atoms: _165  and  _166
REMARK   69  A    between atoms: _168  and  _170
REMARK   70  A    between atoms: _170  and  _171
REMARK   71  A    between atoms: _170  and  _173
REMARK   72  A    between atoms: _173  and  _174
REMARK   73  A    between atoms: _177  and  _179
REMARK   74  A    between atoms: _179  and  _180
REMARK   75  A    between atoms: _179  and  _182
REMARK   76  A    between atoms: _182  and  _183
REMARK   77  A    between atoms: _183  and  _184
REMARK   78  A    between atoms: _189  and  _191
REMARK   79  A    between atoms: _191  and  _192
REMARK   80  A    between atoms: _194  and  _196
REMARK   81  A    between atoms: _196  and  _197
REMARK   82  A    between atoms: _196  and  _199
REMARK   83  A    between atoms: _199  and  _200
REMARK   84  A    between atoms: _200  and  _201
REMARK   85  A    between atoms: _201  and  _202
REMARK   86  A    between atoms: _202  and  _203
REMARK   87  A    between atoms: _207  and  _209
REMARK   88  A    between atoms: _209  and  _210
REMARK   89  A    between atoms: _209  and  _212
REMARK   90  A    between atoms: _212  and  _213
REMARK   91  A    between atoms: _223  and  _225
REMARK   92  A    between atoms: _225  and  _226
REMARK   93  A    between atoms: _225  and  _228
REMARK   94  A    between atoms: _228  and  _229
REMARK   95  A    between atoms: _232  and  _234
REMARK   96  A    between atoms: _234  and  _235
REMARK   97  A    between atoms: _234  and  _237
REMARK   98  A    between atoms: _237  and  _238
REMARK   99  A    between atoms: _238  and  _239
REMARK  100  A    between atoms: _239  and  _240
REMARK  101  A    between atoms: _240  and  _241
REMARK  102  A    between atoms: _245  and  _247
REMARK  103  A    between atoms: _247  and  _248
REMARK  104  A    between atoms: _247  and  _250
REMARK  105  A    between atoms: _250  and  _251
REMARK  106  A    between atoms: _257  and  _259
REMARK  107  A    between atoms: _259  and  _260
REMARK  108  A    between atoms: _259  and  _262
REMARK  109  A    between atoms: _262  and  _263
REMARK  110  A    between atoms: _269  and  _271
REMARK  111  A    between atoms: _271  and  _272
REMARK  112  A    between atoms: _271  and  _274
REMARK  113  A    between atoms: _274  and  _275
REMARK  114  A    between atoms: _278  and  _280
REMARK  115  A    between atoms: _280  and  _281
REMARK  116  A    between atoms: _280  and  _283
REMARK  117  A    between atoms: _283  and  _284
REMARK  118  A    between atoms: _286  and  _288
REMARK  119  A    between atoms: _288  and  _289
REMARK  120  A    between atoms: _288  and  _291
REMARK  121  A    between atoms: _291  and  _292
REMARK  122  A    between atoms: _302  and  _304
REMARK  123  A    between atoms: _304  and  _305
REMARK  124  A    between atoms: _307  and  _309
REMARK  125  A    between atoms: _309  and  _310
REMARK  126  A    between atoms: _309  and  _312
REMARK  127  A    between atoms: _312  and  _313
REMARK  128  A    between atoms: _316  and  _318
REMARK  129  A    between atoms: _318  and  _319
REMARK  130  A    between atoms: _318  and  _321
REMARK  131  A    between atoms: _321  and  _322
REMARK  132  A    between atoms: _325  and  _327
REMARK  133  A    between atoms: _327  and  _328
REMARK  134  A    between atoms: _330  and  _332
REMARK  135  A    between atoms: _332  and  _333
REMARK  136  A    between atoms: _332  and  _335
REMARK  137  A    between atoms: _335  and  _336
REMARK  138  A    between atoms: _339  and  _341
REMARK  139  A    between atoms: _341  and  _342
REMARK  140  A    between atoms: _345  and  _347
REMARK  141  A    between atoms: _347  and  _348
REMARK  142  A    between atoms: _347  and  _350
REMARK  143  A    between atoms: _350  and  _351
REMARK  144  A    between atoms: _354  and  _356
REMARK  145  A    between atoms: _356  and  _357
REMARK  146  A    between atoms: _360  and  _362
REMARK  147  A    between atoms: _362  and  _363
REMARK  148  A    between atoms: _362  and  _365
REMARK  149  A    between atoms: _365  and  _366
REMARK  150  A    between atoms: _366  and  _367
REMARK  151  A    between atoms: _367  and  _368
REMARK  152  A    between atoms: _377  and  _379
REMARK  153  A    between atoms: _379  and  _380
REMARK  154  A    between atoms: _379  and  _382
REMARK  155  A    between atoms: _382  and  _383
REMARK  156  A    between atoms: _386  and  _388
REMARK  157  A    between atoms: _388  and  _389
REMARK  158  A    between atoms: _388  and  _391
REMARK  159  A    between atoms: _391  and  _392
REMARK  160  A    between atoms: _397  and  _398
REMARK  161  A    between atoms: _400  and  _402
REMARK  162  A    between atoms: _402  and  _403
REMARK  163  A    between atoms: _402  and  _405
REMARK  164  A    between atoms: _405  and  _406
REMARK  165  A    between atoms: _411  and  _412
REMARK  166  A    between atoms: _414  and  _416
REMARK  167  A    between atoms: _416  and  _417
REMARK  168  A    between atoms: _416  and  _419
REMARK  169  A    between atoms: _419  and  _420
REMARK  170  A    between atoms: _420  and  _421
REMARK  171  A    between atoms: _421  and  _422
REMARK  172  A    between atoms: _422  and  _423
REMARK  173  A    between atoms: _427  and  _429
REMARK  174  A    between atoms: _429  and  _430
REMARK  175  A    between atoms: _429  and  _432
REMARK  176  A    between atoms: _432  and  _433
REMARK  177  A    between atoms: _436  and  _438
REMARK  178  A    between atoms: _438  and  _439
REMARK  179  A    between atoms: _438  and  _441
REMARK  180  A    between atoms: _444  and  _446
REMARK  181  A    between atoms: _446  and  _447
REMARK  182  A    between atoms: _446  and  _449
REMARK  183  A    between atoms: _449  and  _450
REMARK  184  A    between atoms: _453  and  _455
REMARK  185  A    between atoms: _455  and  _456
REMARK  186  A    between atoms: _455  and  _458
REMARK  187  A    between atoms: _458  and  _459
REMARK  188  A    between atoms: _461  and  _463
REMARK  189  A    between atoms: _463  and  _464
REMARK  190  A    between atoms: _466  and  _468
REMARK  191  A    between atoms: _468  and  _469
REMARK  192  A    between atoms: _468  and  _471
REMARK  193  A    between atoms: _471  and  _472
REMARK  194  A    between atoms: _475  and  _477
REMARK  195  A    between atoms: _477  and  _478
REMARK  196  A    between atoms: _477  and  _480
REMARK  197  A    between atoms: _480  and  _481
REMARK  198  A    between atoms: _484  and  _486
REMARK  199  A    between atoms: _486  and  _487
REMARK  200  A    between atoms: _486  and  _489
REMARK  201  A    between atoms: _489  and  _490
REMARK  202  A    between atoms: _495  and  _497
REMARK  203  A    between atoms: _497  and  _498
REMARK  204  A    between atoms: _497  and  _500
REMARK  205  A    between atoms: _500  and  _501
REMARK  206  A    between atoms: _501  and  _502
REMARK  207  A    between atoms: _502  and  _503
REMARK  208  A    between atoms: _512  and  _514
REMARK  209  A    between atoms: _514  and  _515
REMARK  210  A    between atoms: _514  and  _517
REMARK  211  A    between atoms: _517  and  _518
REMARK  212  A    between atoms: _518  and  _519
REMARK  213  A    between atoms: _519  and  _520
REMARK  214  A    between atoms: _529  and  _531
REMARK  215  A    between atoms: _531  and  _532
REMARK  216  A    between atoms: _531  and  _534
REMARK  217  A    between atoms: _534  and  _535
REMARK  218  A    between atoms: _537  and  _539
REMARK  219  A    between atoms: _539  and  _540
REMARK  220  A    between atoms: _539  and  _542
REMARK  221  A    between atoms: _542  and  _543
REMARK  222  A    between atoms: _543  and  _544
REMARK  223  A    between atoms: _549  and  _551
REMARK  224  A    between atoms: _551  and  _552
REMARK  225  A    between atoms: _551  and  _554
REMARK  226  A    between atoms: _554  and  _555
REMARK  227  A    between atoms: _557  and  _559
REMARK  228  A    between atoms: _559  and  _560
REMARK  229  A    between atoms: _559  and  _562
REMARK  230  A    between atoms: _562  and  _563
REMARK  231  A    between atoms: _565  and  _567
REMARK  232  A    between atoms: _567  and  _568
REMARK  233  A    between atoms: _567  and  _570
REMARK  234  A    between atoms: _570  and  _571
REMARK  235  A    between atoms: _574  and  _576
REMARK  236  A    between atoms: _576  and  _577
REMARK  237  A    between atoms: _576  and  _579
REMARK  238  A    between atoms: _579  and  _580
REMARK  239  A    between atoms: _583  and  _585
REMARK  240  A    between atoms: _585  and  _586
REMARK  241  A    between atoms: _585  and  _588
REMARK  242  A    between atoms: _591  and  _593
REMARK  243  A    between atoms: _593  and  _594
REMARK  244  A    between atoms: _596  and  _598
REMARK  245  A    between atoms: _598  and  _599
REMARK  246  A    between atoms: _602  and  _604
REMARK  247  A    between atoms: _604  and  _605
REMARK  248  A    between atoms: _604  and  _607
REMARK                            x       y       z     vdW  Elec       q    Type
REMARK                         _______ _______ _______ _____ _____    ______ ____
ROOT
ATOM      1  O   HOH     1      30.990  16.527  12.688  0.00  0.00    +0.000 OA
ENDROOT
TORSDOF 0
REMARK  Name = ../refined-set-2016/2qmg/2qmg_pocket.pdb
REMARK  248 active torsions:
REMARK  status: ('A' for Active; 'I' for Inactive)
REMARK    1  A    between atoms: _1  and  _3
REMARK    2  A    between atoms: _3  and  _4
REMARK    3  A    between atoms: _3  and  _6
REMARK    4  A    between atoms: _6  and  _7
REMARK    5  A    between atoms: _7  and  _8
REMARK    6  A    between atoms: _8  and  _9
REMARK    7  A    between atoms: _9  and  _10
REMARK    8  A    between atoms: _14  and  _16
REMARK    9  A    between atoms: _16  and  _17
REMARK   10  A    between atoms: _16  and  _19
REMARK   11  A    between atoms: _19  and  _20
REMARK   12  A    between atoms: _22  and  _24
REMARK   13  A    between atoms: _24  and  _25
REMARK   14  A    between atoms: _27  and  _29
REMARK   15  A    between atoms: _29  and  _30
REMARK   16  A    between atoms: _29  and  _32
REMARK   17  A    between atoms: _32  and  _33
REMARK   18  A    between atoms: _33  and  _34
REMARK   19  A    between atoms: _39  and  _41
REMARK   20  A    between atoms: _41  and  _42
REMARK   21  A    between atoms: _44  and  _46
REMARK   22  A    between atoms: _46  and  _47
REMARK   23  A    between atoms: _46  and  _49
REMARK   24  A    between atoms: _49  and  _50
REMARK   25  A    between atoms: _55  and  _56
REMARK   26  A    between atoms: _58  and  _60
REMARK   27  A    between atoms: _60  and  _61
REMARK   28  A    between atoms: _60  and  _63
REMARK   29  A    between atoms: _63  and  _64
REMARK   30  A    between atoms: _67  and  _69
REMARK   31  A    between atoms: _69  and  _70
REMARK   32  A    between atoms: _69  and  _72
REMARK   33  A    between atoms: _75  and  _77
REMARK   34  A    between atoms: _77  and  _78
REMARK   35  A    between atoms: _77  and  _80
REMARK   36  A    between atoms: _80  and  _81
REMARK   37  A    between atoms: _84  and  _86
REMARK   38  A    between atoms: _86  and  _87
REMARK   39  A    between atoms: _86  and  _89
REMARK   40  A    between atoms: _89  and  _90
REMARK   41  A    between atoms: _93  and  _95
REMARK   42  A    between atoms: _95  and  _96
REMARK   43  A    between atoms: _98  and  _100
REMARK   44  A    between atoms: _100  and  _101
REMARK   45  A    between atoms: _100  and  _103
REMARK   46  A    between atoms: _103  and  _104
REMARK   47  A    between atoms: _106  and  _108
REMARK   48  A    between atoms: _108  and  _109
REMARK   49  A    between atoms: _108  and  _111
REMARK   50  A    between atoms: _111  and  _112
REMARK   51  A    between atoms: _114  and  _116
REMARK   52  A    between atoms: _116  and  _117
REMARK   53  A    between atoms: _116  and  _119
REMARK   54  A    between atoms: _119  and  _120
REMARK   55  A    between atoms: _125  and  _127
REMARK   56  A    between atoms: _127  and  _128
REMARK   57  A    between atoms: _127  and  _130
REMARK   58  A    between atoms: _130  and  _131
REMARK   59  A    between atoms: _136  and  _137
REMARK   60  A    between atoms: _139  and  _141
REMARK   61  A    between atoms: _141  and  _142
REMARK   62  A    between atoms: _141  and  _144
REMARK   63  A    between atoms: _148  and  _149
REMARK   64  A    between atoms: _154  and  _156
REMARK   65  A    between atoms: _156  and  _157
REMARK   66  A    between atoms: _156  and  _159
REMARK   67  A    between atoms: _159  and  _160
REMARK   68  A    between atoms: _165  and  _166
REMARK   69  A    between atoms: _168  and  _170
REMARK   70  A    between atoms: _170  and  _171
REMARK   71  A    between atoms: _170  and  _173
REMARK   72  A    between atoms: _173  and  _174
REMARK   73  A    between atoms: _177  and  _179
REMARK   74  A    between atoms: _179  and  _180
REMARK   75  A    between atoms: _179  and  _182
REMARK   76  A    between atoms: _182  and  _183
REMARK   77  A    between atoms: _183  and  _184
REMARK   78  A    between atoms: _189  and  _191
REMARK   79  A    between atoms: _191  and  _192
REMARK   80  A    between atoms: _194  and  _196
REMARK   81  A    between atoms: _196  and  _197
REMARK   82  A    between atoms: _196  and  _199
REMARK   83  A    between atoms: _199  and  _200
REMARK   84  A    between atoms: _200  and  _201
REMARK   85  A    between atoms: _201  and  _202
REMARK   86  A    between atoms: _202  and  _203
REMARK   87  A    between atoms: _207  and  _209
REMARK   88  A    between atoms: _209  and  _210
REMARK   89  A    between atoms: _209  and  _212
REMARK   90  A    between atoms: _212  and  _213
REMARK   91  A    between atoms: _223  and  _225
REMARK   92  A    between atoms: _225  and  _226
REMARK   93  A    between atoms: _225  and  _228
REMARK   94  A    between atoms: _228  and  _229
REMARK   95  A    between atoms: _232  and  _234
REMARK   96  A    between atoms: _234  and  _235
REMARK   97  A    between atoms: _234  and  _237
REMARK   98  A    between atoms: _237  and  _238
REMARK   99  A    between atoms: _238  and  _239
REMARK  100  A    between atoms: _239  and  _240
REMARK  101  A    between atoms: _240  and  _241
REMARK  102  A    between atoms: _245  and  _247
REMARK  103  A    between atoms: _247  and  _248
REMARK  104  A    between atoms: _247  and  _250
REMARK  105  A    between atoms: _250  and  _251
REMARK  106  A    between atoms: _257  and  _259
REMARK  107  A    between atoms: _259  and  _260
REMARK  108  A    between atoms: _259  and  _262
REMARK  109  A    between atoms: _262  and  _263
REMARK  110  A    between atoms: _269  and  _271
REMARK  111  A    between atoms: _271  and  _272
REMARK  112  A    between atoms: _271  and  _274
REMARK  113  A    between atoms: _274  and  _275
REMARK  114  A    between atoms: _278  and  _280
REMARK  115  A    between atoms: _280  and  _281
REMARK  116  A    between atoms: _280  and  _283
REMARK  117  A    between atoms: _283  and  _284
REMARK  118  A    between atoms: _286  and  _288
REMARK  119  A    between atoms: _288  and  _289
REMARK  120  A    between atoms: _288  and  _291
REMARK  121  A    between atoms: _291  and  _292
REMARK  122  A    between atoms: _302  and  _304
REMARK  123  A    between atoms: _304  and  _305
REMARK  124  A    between atoms: _307  and  _309
REMARK  125  A    between atoms: _309  and  _310
REMARK  126  A    between atoms: _309  and  _312
REMARK  127  A    between atoms: _312  and  _313
REMARK  128  A    between atoms: _316  and  _318
REMARK  129  A    between atoms: _318  and  _319
REMARK  130  A    between atoms: _318  and  _321
REMARK  131  A    between atoms: _321  and  _322
REMARK  132  A    between atoms: _325  and  _327
REMARK  133  A    between atoms: _327  and  _328
REMARK  134  A    between atoms: _330  and  _332
REMARK  135  A    between atoms: _332  and  _333
REMARK  136  A    between atoms: _332  and  _335
REMARK  137  A    between atoms: _335  and  _336
REMARK  138  A    between atoms: _339  and  _341
REMARK  139  A    between atoms: _341  and  _342
REMARK  140  A    between atoms: _345  and  _347
REMARK  141  A    between atoms: _347  and  _348
REMARK  142  A    between atoms: _347  and  _350
REMARK  143  A    between atoms: _350  and  _351
REMARK  144  A    between atoms: _354  and  _356
REMARK  145  A    between atoms: _356  and  _357
REMARK  146  A    between atoms: _360  and  _362
REMARK  147  A    between atoms: _362  and  _363
REMARK  148  A    between atoms: _362  and  _365
REMARK  149  A    between atoms: _365  and  _366
REMARK  150  A    between atoms: _366  and  _367
REMARK  151  A    between atoms: _367  and  _368
REMARK  152  A    between atoms: _377  and  _379
REMARK  153  A    between atoms: _379  and  _380
REMARK  154  A    between atoms: _379  and  _382
REMARK  155  A    between atoms: _382  and  _383
REMARK  156  A    between atoms: _386  and  _388
REMARK  157  A    between atoms: _388  and  _389
REMARK  158  A    between atoms: _388  and  _391
REMARK  159  A    between atoms: _391  and  _392
REMARK  160  A    between atoms: _397  and  _398
REMARK  161  A    between atoms: _400  and  _402
REMARK  162  A    between atoms: _402  and  _403
REMARK  163  A    between atoms: _402  and  _405
REMARK  164  A    between atoms: _405  and  _406
REMARK  165  A    between atoms: _411  and  _412
REMARK  166  A    between atoms: _414  and  _416
REMARK  167  A    between atoms: _416  and  _417
REMARK  168  A    between atoms: _416  and  _419
REMARK  169  A    between atoms: _419  and  _420
REMARK  170  A    between atoms: _420  and  _421
REMARK  171  A    between atoms: _421  and  _422
REMARK  172  A    between atoms: _422  and  _423
REMARK  173  A    between atoms: _427  and  _429
REMARK  174  A    between atoms: _429  and  _430
REMARK  175  A    between atoms: _429  and  _432
REMARK  176  A    between atoms: _432  and  _433
REMARK  177  A    between atoms: _436  and  _438
REMARK  178  A    between atoms: _438  and  _439
REMARK  179  A    between atoms: _438  and  _441
REMARK  180  A    between atoms: _444  and  _446
REMARK  181  A    between atoms: _446  and  _447
REMARK  182  A    between atoms: _446  and  _449
REMARK  183  A    between atoms: _449  and  _450
REMARK  184  A    between atoms: _453  and  _455
REMARK  185  A    between atoms: _455  and  _456
REMARK  186  A    between atoms: _455  and  _458
REMARK  187  A    between atoms: _458  and  _459
REMARK  188  A    between atoms: _461  and  _463
REMARK  189  A    between atoms: _463  and  _464
REMARK  190  A    between atoms: _466  and  _468
REMARK  191  A    between atoms: _468  and  _469
REMARK  192  A    between atoms: _468  and  _471
REMARK  193  A    between atoms: _471  and  _472
REMARK  194  A    between atoms: _475  and  _477
REMARK  195  A    between atoms: _477  and  _478
REMARK  196  A    between atoms: _477  and  _480
REMARK  197  A    between atoms: _480  and  _481
REMARK  198  A    between atoms: _484  and  _486
REMARK  199  A    between atoms: _486  and  _487
REMARK  200  A    between atoms: _486  and  _489
REMARK  201  A    between atoms: _489  and  _490
REMARK  202  A    between atoms: _495  and  _497
REMARK  203  A    between atoms: _497  and  _498
REMARK  204  A    between atoms: _497  and  _500
REMARK  205  A    between atoms: _500  and  _501
REMARK  206  A    between atoms: _501  and  _502
REMARK  207  A    between atoms: _502  and  _503
REMARK  208  A    between atoms: _512  and  _514
REMARK  209  A    between atoms: _514  and  _515
REMARK  210  A    between atoms: _514  and  _517
REMARK  211  A    between atoms: _517  and  _518
REMARK  212  A    between atoms: _518  and  _519
REMARK  213  A    between atoms: _519  and  _520
REMARK  214  A    between atoms: _529  and  _531
REMARK  215  A    between atoms: _531  and  _532
REMARK  216  A    between atoms: _531  and  _534
REMARK  217  A    between atoms: _534  and  _535
REMARK  218  A    between atoms: _537  and  _539
REMARK  219  A    between atoms: _539  and  _540
REMARK  220  A    between atoms: _539  and  _542
REMARK  221  A    between atoms: _542  and  _543
REMARK  222  A    between atoms: _543  and  _544
REMARK  223  A    between atoms: _549  and  _551
REMARK  224  A    between atoms: _551  and  _552
REMARK  225  A    between atoms: _551  and  _554
REMARK  226  A    between atoms: _554  and  _555
REMARK  227  A    between atoms: _557  and  _559
REMARK  228  A    between atoms: _559  and  _560
REMARK  229  A    between atoms: _559  and  _562
REMARK  230  A    between atoms: _562  and  _563
REMARK  231  A    between atoms: _565  and  _567
REMARK  232  A    between atoms: _567  and  _568
REMARK  233  A    between atoms: _567  and  _570
REMARK  234  A    between atoms: _570  and  _571
REMARK  235  A    between atoms: _574  and  _576
REMARK  236  A    between atoms: _576  and  _577
REMARK  237  A    between atoms: _576  and  _579
REMARK  238  A    between atoms: _579  and  _580
REMARK  239  A    between atoms: _583  and  _585
REMARK  240  A    between atoms: _585  and  _586
REMARK  241  A    between atoms: _585  and  _588
REMARK  242  A    between atoms: _591  and  _593
REMARK  243  A    between atoms: _593  and  _594
REMARK  244  A    between atoms: _596  and  _598
REMARK  245  A    between atoms: _598  and  _599
REMARK  246  A    between atoms: _602  and  _604
REMARK  247  A    between atoms: _604  and  _605
REMARK  248  A    between atoms: _604  and  _607
REMARK                            x       y       z     vdW  Elec       q    Type
REMARK                         _______ _______ _______ _____ _____    ______ ____
ROOT
ATOM      1  O   HOH     1      28.543  16.243  16.301  0.00  0.00    +0.000 OA
ENDROOT
TORSDOF 0
REMARK  Name = ../refined-set-2016/2qmg/2qmg_pocket.pdb
REMARK  248 active torsions:
REMARK  status: ('A' for Active; 'I' for Inactive)
REMARK    1  A    between atoms: _1  and  _3
REMARK    2  A    between atoms: _3  and  _4
REMARK    3  A    between atoms: _3  and  _6
REMARK    4  A    between atoms: _6  and  _7
REMARK    5  A    between atoms: _7  and  _8
REMARK    6  A    between atoms: _8  and  _9
REMARK    7  A    between atoms: _9  and  _10
REMARK    8  A    between atoms: _14  and  _16
REMARK    9  A    between atoms: _16  and  _17
REMARK   10  A    between atoms: _16  and  _19
REMARK   11  A    between atoms: _19  and  _20
REMARK   12  A    between atoms: _22  and  _24
REMARK   13  A    between atoms: _24  and  _25
REMARK   14  A    between atoms: _27  and  _29
REMARK   15  A    between atoms: _29  and  _30
REMARK   16  A    between atoms: _29  and  _32
REMARK   17  A    between atoms: _32  and  _33
REMARK   18  A    between atoms: _33  and  _34
REMARK   19  A    between atoms: _39  and  _41
REMARK   20  A    between atoms: _41  and  _42
REMARK   21  A    between atoms: _44  and  _46
REMARK   22  A    between atoms: _46  and  _47
REMARK   23  A    between atoms: _46  and  _49
REMARK   24  A    between atoms: _49  and  _50
REMARK   25  A    between atoms: _55  and  _56
REMARK   26  A    between atoms: _58  and  _60
REMARK   27  A    between atoms: _60  and  _61
REMARK   28  A    between atoms: _60  and  _63
REMARK   29  A    between atoms: _63  and  _64
REMARK   30  A    between atoms: _67  and  _69
REMARK   31  A    between atoms: _69  and  _70
REMARK   32  A    between atoms: _69  and  _72
REMARK   33  A    between atoms: _75  and  _77
REMARK   34  A    between atoms: _77  and  _78
REMARK   35  A    between atoms: _77  and  _80
REMARK   36  A    between atoms: _80  and  _81
REMARK   37  A    between atoms: _84  and  _86
REMARK   38  A    between atoms: _86  and  _87
REMARK   39  A    between atoms: _86  and  _89
REMARK   40  A    between atoms: _89  and  _90
REMARK   41  A    between atoms: _93  and  _95
REMARK   42  A    between atoms: _95  and  _96
REMARK   43  A    between atoms: _98  and  _100
REMARK   44  A    between atoms: _100  and  _101
REMARK   45  A    between atoms: _100  and  _103
REMARK   46  A    between atoms: _103  and  _104
REMARK   47  A    between atoms: _106  and  _108
REMARK   48  A    between atoms: _108  and  _109
REMARK   49  A    between atoms: _108  and  _111
REMARK   50  A    between atoms: _111  and  _112
REMARK   51  A    between atoms: _114  and  _116
REMARK   52  A    between atoms: _116  and  _117
REMARK   53  A    between atoms: _116  and  _119
REMARK   54  A    between atoms: _119  and  _120
REMARK   55  A    between atoms: _125  and  _127
REMARK   56  A    between atoms: _127  and  _128
REMARK   57  A    between atoms: _127  and  _130
REMARK   58  A    between atoms: _130  and  _131
REMARK   59  A    between atoms: _136  and  _137
REMARK   60  A    between atoms: _139  and  _141
REMARK   61  A    between atoms: _141  and  _142
REMARK   62  A    between atoms: _141  and  _144
REMARK   63  A    between atoms: _148  and  _149
REMARK   64  A    between atoms: _154  and  _156
REMARK   65  A    between atoms: _156  and  _157
REMARK   66  A    between atoms: _156  and  _159
REMARK   67  A    between atoms: _159  and  _160
REMARK   68  A    between atoms: _165  and  _166
REMARK   69  A    between atoms: _168  and  _170
REMARK   70  A    between atoms: _170  and  _171
REMARK   71  A    between atoms: _170  and  _173
REMARK   72  A    between atoms: _173  and  _174
REMARK   73  A    between atoms: _177  and  _179
REMARK   74  A    between atoms: _179  and  _180
REMARK   75  A    between atoms: _179  and  _182
REMARK   76  A    between atoms: _182  and  _183
REMARK   77  A    between atoms: _183  and  _184
REMARK   78  A    between atoms: _189  and  _191
REMARK   79  A    between atoms: _191  and  _192
REMARK   80  A    between atoms: _194  and  _196
REMARK   81  A    between atoms: _196  and  _197
REMARK   82  A    between atoms: _196  and  _199
REMARK   83  A    between atoms: _199  and  _200
REMARK   84  A    between atoms: _200  and  _201
REMARK   85  A    between atoms: _201  and  _202
REMARK   86  A    between atoms: _202  and  _203
REMARK   87  A    between atoms: _207  and  _209
REMARK   88  A    between atoms: _209  and  _210
REMARK   89  A    between atoms: _209  and  _212
REMARK   90  A    between atoms: _212  and  _213
REMARK   91  A    between atoms: _223  and  _225
REMARK   92  A    between atoms: _225  and  _226
REMARK   93  A    between atoms: _225  and  _228
REMARK   94  A    between atoms: _228  and  _229
REMARK   95  A    between atoms: _232  and  _234
REMARK   96  A    between atoms: _234  and  _235
REMARK   97  A    between atoms: _234  and  _237
REMARK   98  A    between atoms: _237  and  _238
REMARK   99  A    between atoms: _238  and  _239
REMARK  100  A    between atoms: _239  and  _240
REMARK  101  A    between atoms: _240  and  _241
REMARK  102  A    between atoms: _245  and  _247
REMARK  103  A    between atoms: _247  and  _248
REMARK  104  A    between atoms: _247  and  _250
REMARK  105  A    between atoms: _250  and  _251
REMARK  106  A    between atoms: _257  and  _259
REMARK  107  A    between atoms: _259  and  _260
REMARK  108  A    between atoms: _259  and  _262
REMARK  109  A    between atoms: _262  and  _263
REMARK  110  A    between atoms: _269  and  _271
REMARK  111  A    between atoms: _271  and  _272
REMARK  112  A    between atoms: _271  and  _274
REMARK  113  A    between atoms: _274  and  _275
REMARK  114  A    between atoms: _278  and  _280
REMARK  115  A    between atoms: _280  and  _281
REMARK  116  A    between atoms: _280  and  _283
REMARK  117  A    between atoms: _283  and  _284
REMARK  118  A    between atoms: _286  and  _288
REMARK  119  A    between atoms: _288  and  _289
REMARK  120  A    between atoms: _288  and  _291
REMARK  121  A    between atoms: _291  and  _292
REMARK  122  A    between atoms: _302  and  _304
REMARK  123  A    between atoms: _304  and  _305
REMARK  124  A    between atoms: _307  and  _309
REMARK  125  A    between atoms: _309  and  _310
REMARK  126  A    between atoms: _309  and  _312
REMARK  127  A    between atoms: _312  and  _313
REMARK  128  A    between atoms: _316  and  _318
REMARK  129  A    between atoms: _318  and  _319
REMARK  130  A    between atoms: _318  and  _321
REMARK  131  A    between atoms: _321  and  _322
REMARK  132  A    between atoms: _325  and  _327
REMARK  133  A    between atoms: _327  and  _328
REMARK  134  A    between atoms: _330  and  _332
REMARK  135  A    between atoms: _332  and  _333
REMARK  136  A    between atoms: _332  and  _335
REMARK  137  A    between atoms: _335  and  _336
REMARK  138  A    between atoms: _339  and  _341
REMARK  139  A    between atoms: _341  and  _342
REMARK  140  A    between atoms: _345  and  _347
REMARK  141  A    between atoms: _347  and  _348
REMARK  142  A    between atoms: _347  and  _350
REMARK  143  A    between atoms: _350  and  _351
REMARK  144  A    between atoms: _354  and  _356
REMARK  145  A    between atoms: _356  and  _357
REMARK  146  A    between atoms: _360  and  _362
REMARK  147  A    between atoms: _362  and  _363
REMARK  148  A    between atoms: _362  and  _365
REMARK  149  A    between atoms: _365  and  _366
REMARK  150  A    between atoms: _366  and  _367
REMARK  151  A    between atoms: _367  and  _368
REMARK  152  A    between atoms: _377  and  _379
REMARK  153  A    between atoms: _379  and  _380
REMARK  154  A    between atoms: _379  and  _382
REMARK  155  A    between atoms: _382  and  _383
REMARK  156  A    between atoms: _386  and  _388
REMARK  157  A    between atoms: _388  and  _389
REMARK  158  A    between atoms: _388  and  _391
REMARK  159  A    between atoms: _391  and  _392
REMARK  160  A    between atoms: _397  and  _398
REMARK  161  A    between atoms: _400  and  _402
REMARK  162  A    between atoms: _402  and  _403
REMARK  163  A    between atoms: _402  and  _405
REMARK  164  A    between atoms: _405  and  _406
REMARK  165  A    between atoms: _411  and  _412
REMARK  166  A    between atoms: _414  and  _416
REMARK  167  A    between atoms: _416  and  _417
REMARK  168  A    between atoms: _416  and  _419
REMARK  169  A    between atoms: _419  and  _420
REMARK  170  A    between atoms: _420  and  _421
REMARK  171  A    between atoms: _421  and  _422
REMARK  172  A    between atoms: _422  and  _423
REMARK  173  A    between atoms: _427  and  _429
REMARK  174  A    between atoms: _429  and  _430
REMARK  175  A    between atoms: _429  and  _432
REMARK  176  A    between atoms: _432  and  _433
REMARK  177  A    between atoms: _436  and  _438
REMARK  178  A    between atoms: _438  and  _439
REMARK  179  A    between atoms: _438  and  _441
REMARK  180  A    between atoms: _444  and  _446
REMARK  181  A    between atoms: _446  and  _447
REMARK  182  A    between atoms: _446  and  _449
REMARK  183  A    between atoms: _449  and  _450
REMARK  184  A    between atoms: _453  and  _455
REMARK  185  A    between atoms: _455  and  _456
REMARK  186  A    between atoms: _455  and  _458
REMARK  187  A    between atoms: _458  and  _459
REMARK  188  A    between atoms: _461  and  _463
REMARK  189  A    between atoms: _463  and  _464
REMARK  190  A    between atoms: _466  and  _468
REMARK  191  A    between atoms: _468  and  _469
REMARK  192  A    between atoms: _468  and  _471
REMARK  193  A    between atoms: _471  and  _472
REMARK  194  A    between atoms: _475  and  _477
REMARK  195  A    between atoms: _477  and  _478
REMARK  196  A    between atoms: _477  and  _480
REMARK  197  A    between atoms: _480  and  _481
REMARK  198  A    between atoms: _484  and  _486
REMARK  199  A    between atoms: _486  and  _487
REMARK  200  A    between atoms: _486  and  _489
REMARK  201  A    between atoms: _489  and  _490
REMARK  202  A    between atoms: _495  and  _497
REMARK  203  A    between atoms: _497  and  _498
REMARK  204  A    between atoms: _497  and  _500
REMARK  205  A    between atoms: _500  and  _501
REMARK  206  A    between atoms: _501  and  _502
REMARK  207  A    between atoms: _502  and  _503
REMARK  208  A    between atoms: _512  and  _514
REMARK  209  A    between atoms: _514  and  _515
REMARK  210  A    between atoms: _514  and  _517
REMARK  211  A    between atoms: _517  and  _518
REMARK  212  A    between atoms: _518  and  _519
REMARK  213  A    between atoms: _519  and  _520
REMARK  214  A    between atoms: _529  and  _531
REMARK  215  A    between atoms: _531  and  _532
REMARK  216  A    between atoms: _531  and  _534
REMARK  217  A    between atoms: _534  and  _535
REMARK  218  A    between atoms: _537  and  _539
REMARK  219  A    between atoms: _539  and  _540
REMARK  220  A    between atoms: _539  and  _542
REMARK  221  A    between atoms: _542  and  _543
REMARK  222  A    between atoms: _543  and  _544
REMARK  223  A    between atoms: _549  and  _551
REMARK  224  A    between atoms: _551  and  _552
REMARK  225  A    between atoms: _551  and  _554
REMARK  226  A    between atoms: _554  and  _555
REMARK  227  A    between atoms: _557  and  _559
REMARK  228  A    between atoms: _559  and  _560
REMARK  229  A    between atoms: _559  and  _562
REMARK  230  A    between atoms: _562  and  _563
REMARK  231  A    between atoms: _565  and  _567
REMARK  232  A    between atoms: _567  and  _568
REMARK  233  A    between atoms: _567  and  _570
REMARK  234  A    between atoms: _570  and  _571
REMARK  235  A    between atoms: _574  and  _576
REMARK  236  A    between atoms: _576  and  _577
REMARK  237  A    between atoms: _576  and  _579
REMARK  238  A    between atoms: _579  and  _580
REMARK  239  A    between atoms: _583  and  _585
REMARK  240  A    between atoms: _585  and  _586
REMARK  241  A    between atoms: _585  and  _588
REMARK  242  A    between atoms: _591  and  _593
REMARK  243  A    between atoms: _593  and  _594
REMARK  244  A    between atoms: _596  and  _598
REMARK  245  A    between atoms: _598  and  _599
REMARK  246  A    between atoms: _602  and  _604
REMARK  247  A    between atoms: _604  and  _605
REMARK  248  A    between atoms: _604  and  _607
REMARK                            x       y       z     vdW  Elec       q    Type
REMARK                         _______ _______ _______ _____ _____    ______ ____
ROOT
ATOM      1  O   HOH     1      17.691  17.834  19.518  0.00  0.00    +0.000 OA
ENDROOT
TORSDOF 0
REMARK  Name = ../refined-set-2016/2qmg/2qmg_pocket.pdb
REMARK  248 active torsions:
REMARK  status: ('A' for Active; 'I' for Inactive)
REMARK    1  A    between atoms: _1  and  _3
REMARK    2  A    between atoms: _3  and  _4
REMARK    3  A    between atoms: _3  and  _6
REMARK    4  A    between atoms: _6  and  _7
REMARK    5  A    between atoms: _7  and  _8
REMARK    6  A    between atoms: _8  and  _9
REMARK    7  A    between atoms: _9  and  _10
REMARK    8  A    between atoms: _14  and  _16
REMARK    9  A    between atoms: _16  and  _17
REMARK   10  A    between atoms: _16  and  _19
REMARK   11  A    between atoms: _19  and  _20
REMARK   12  A    between atoms: _22  and  _24
REMARK   13  A    between atoms: _24  and  _25
REMARK   14  A    between atoms: _27  and  _29
REMARK   15  A    between atoms: _29  and  _30
REMARK   16  A    between atoms: _29  and  _32
REMARK   17  A    between atoms: _32  and  _33
REMARK   18  A    between atoms: _33  and  _34
REMARK   19  A    between atoms: _39  and  _41
REMARK   20  A    between atoms: _41  and  _42
REMARK   21  A    between atoms: _44  and  _46
REMARK   22  A    between atoms: _46  and  _47
REMARK   23  A    between atoms: _46  and  _49
REMARK   24  A    between atoms: _49  and  _50
REMARK   25  A    between atoms: _55  and  _56
REMARK   26  A    between atoms: _58  and  _60
REMARK   27  A    between atoms: _60  and  _61
REMARK   28  A    between atoms: _60  and  _63
REMARK   29  A    between atoms: _63  and  _64
REMARK   30  A    between atoms: _67  and  _69
REMARK   31  A    between atoms: _69  and  _70
REMARK   32  A    between atoms: _69  and  _72
REMARK   33  A    between atoms: _75  and  _77
REMARK   34  A    between atoms: _77  and  _78
REMARK   35  A    between atoms: _77  and  _80
REMARK   36  A    between atoms: _80  and  _81
REMARK   37  A    between atoms: _84  and  _86
REMARK   38  A    between atoms: _86  and  _87
REMARK   39  A    between atoms: _86  and  _89
REMARK   40  A    between atoms: _89  and  _90
REMARK   41  A    between atoms: _93  and  _95
REMARK   42  A    between atoms: _95  and  _96
REMARK   43  A    between atoms: _98  and  _100
REMARK   44  A    between atoms: _100  and  _101
REMARK   45  A    between atoms: _100  and  _103
REMARK   46  A    between atoms: _103  and  _104
REMARK   47  A    between atoms: _106  and  _108
REMARK   48  A    between atoms: _108  and  _109
REMARK   49  A    between atoms: _108  and  _111
REMARK   50  A    between atoms: _111  and  _112
REMARK   51  A    between atoms: _114  and  _116
REMARK   52  A    between atoms: _116  and  _117
REMARK   53  A    between atoms: _116  and  _119
REMARK   54  A    between atoms: _119  and  _120
REMARK   55  A    between atoms: _125  and  _127
REMARK   56  A    between atoms: _127  and  _128
REMARK   57  A    between atoms: _127  and  _130
REMARK   58  A    between atoms: _130  and  _131
REMARK   59  A    between atoms: _136  and  _137
REMARK   60  A    between atoms: _139  and  _141
REMARK   61  A    between atoms: _141  and  _142
REMARK   62  A    between atoms: _141  and  _144
REMARK   63  A    between atoms: _148  and  _149
REMARK   64  A    between atoms: _154  and  _156
REMARK   65  A    between atoms: _156  and  _157
REMARK   66  A    between atoms: _156  and  _159
REMARK   67  A    between atoms: _159  and  _160
REMARK   68  A    between atoms: _165  and  _166
REMARK   69  A    between atoms: _168  and  _170
REMARK   70  A    between atoms: _170  and  _171
REMARK   71  A    between atoms: _170  and  _173
REMARK   72  A    between atoms: _173  and  _174
REMARK   73  A    between atoms: _177  and  _179
REMARK   74  A    between atoms: _179  and  _180
REMARK   75  A    between atoms: _179  and  _182
REMARK   76  A    between atoms: _182  and  _183
REMARK   77  A    between atoms: _183  and  _184
REMARK   78  A    between atoms: _189  and  _191
REMARK   79  A    between atoms: _191  and  _192
REMARK   80  A    between atoms: _194  and  _196
REMARK   81  A    between atoms: _196  and  _197
REMARK   82  A    between atoms: _196  and  _199
REMARK   83  A    between atoms: _199  and  _200
REMARK   84  A    between atoms: _200  and  _201
REMARK   85  A    between atoms: _201  and  _202
REMARK   86  A    between atoms: _202  and  _203
REMARK   87  A    between atoms: _207  and  _209
REMARK   88  A    between atoms: _209  and  _210
REMARK   89  A    between atoms: _209  and  _212
REMARK   90  A    between atoms: _212  and  _213
REMARK   91  A    between atoms: _223  and  _225
REMARK   92  A    between atoms: _225  and  _226
REMARK   93  A    between atoms: _225  and  _228
REMARK   94  A    between atoms: _228  and  _229
REMARK   95  A    between atoms: _232  and  _234
REMARK   96  A    between atoms: _234  and  _235
REMARK   97  A    between atoms: _234  and  _237
REMARK   98  A    between atoms: _237  and  _238
REMARK   99  A    between atoms: _238  and  _239
REMARK  100  A    between atoms: _239  and  _240
REMARK  101  A    between atoms: _240  and  _241
REMARK  102  A    between atoms: _245  and  _247
REMARK  103  A    between atoms: _247  and  _248
REMARK  104  A    between atoms: _247  and  _250
REMARK  105  A    between atoms: _250  and  _251
REMARK  106  A    between atoms: _257  and  _259
REMARK  107  A    between atoms: _259  and  _260
REMARK  108  A    between atoms: _259  and  _262
REMARK  109  A    between atoms: _262  and  _263
REMARK  110  A    between atoms: _269  and  _271
REMARK  111  A    between atoms: _271  and  _272
REMARK  112  A    between atoms: _271  and  _274
REMARK  113  A    between atoms: _274  and  _275
REMARK  114  A    between atoms: _278  and  _280
REMARK  115  A    between atoms: _280  and  _281
REMARK  116  A    between atoms: _280  and  _283
REMARK  117  A    between atoms: _283  and  _284
REMARK  118  A    between atoms: _286  and  _288
REMARK  119  A    between atoms: _288  and  _289
REMARK  120  A    between atoms: _288  and  _291
REMARK  121  A    between atoms: _291  and  _292
REMARK  122  A    between atoms: _302  and  _304
REMARK  123  A    between atoms: _304  and  _305
REMARK  124  A    between atoms: _307  and  _309
REMARK  125  A    between atoms: _309  and  _310
REMARK  126  A    between atoms: _309  and  _312
REMARK  127  A    between atoms: _312  and  _313
REMARK  128  A    between atoms: _316  and  _318
REMARK  129  A    between atoms: _318  and  _319
REMARK  130  A    between atoms: _318  and  _321
REMARK  131  A    between atoms: _321  and  _322
REMARK  132  A    between atoms: _325  and  _327
REMARK  133  A    between atoms: _327  and  _328
REMARK  134  A    between atoms: _330  and  _332
REMARK  135  A    between atoms: _332  and  _333
REMARK  136  A    between atoms: _332  and  _335
REMARK  137  A    between atoms: _335  and  _336
REMARK  138  A    between atoms: _339  and  _341
REMARK  139  A    between atoms: _341  and  _342
REMARK  140  A    between atoms: _345  and  _347
REMARK  141  A    between atoms: _347  and  _348
REMARK  142  A    between atoms: _347  and  _350
REMARK  143  A    between atoms: _350  and  _351
REMARK  144  A    between atoms: _354  and  _356
REMARK  145  A    between atoms: _356  and  _357
REMARK  146  A    between atoms: _360  and  _362
REMARK  147  A    between atoms: _362  and  _363
REMARK  148  A    between atoms: _362  and  _365
REMARK  149  A    between atoms: _365  and  _366
REMARK  150  A    between atoms: _366  and  _367
REMARK  151  A    between atoms: _367  and  _368
REMARK  152  A    between atoms: _377  and  _379
REMARK  153  A    between atoms: _379  and  _380
REMARK  154  A    between atoms: _379  and  _382
REMARK  155  A    between atoms: _382  and  _383
REMARK  156  A    between atoms: _386  and  _388
REMARK  157  A    between atoms: _388  and  _389
REMARK  158  A    between atoms: _388  and  _391
REMARK  159  A    between atoms: _391  and  _392
REMARK  160  A    between atoms: _397  and  _398
REMARK  161  A    between atoms: _400  and  _402
REMARK  162  A    between atoms: _402  and  _403
REMARK  163  A    between atoms: _402  and  _405
REMARK  164  A    between atoms: _405  and  _406
REMARK  165  A    between atoms: _411  and  _412
REMARK  166  A    between atoms: _414  and  _416
REMARK  167  A    between atoms: _416  and  _417
REMARK  168  A    between atoms: _416  and  _419
REMARK  169  A    between atoms: _419  and  _420
REMARK  170  A    between atoms: _420  and  _421
REMARK  171  A    between atoms: _421  and  _422
REMARK  172  A    between atoms: _422  and  _423
REMARK  173  A    between atoms: _427  and  _429
REMARK  174  A    between atoms: _429  and  _430
REMARK  175  A    between atoms: _429  and  _432
REMARK  176  A    between atoms: _432  and  _433
REMARK  177  A    between atoms: _436  and  _438
REMARK  178  A    between atoms: _438  and  _439
REMARK  179  A    between atoms: _438  and  _441
REMARK  180  A    between atoms: _444  and  _446
REMARK  181  A    between atoms: _446  and  _447
REMARK  182  A    between atoms: _446  and  _449
REMARK  183  A    between atoms: _449  and  _450
REMARK  184  A    between atoms: _453  and  _455
REMARK  185  A    between atoms: _455  and  _456
REMARK  186  A    between atoms: _455  and  _458
REMARK  187  A    between atoms: _458  and  _459
REMARK  188  A    between atoms: _461  and  _463
REMARK  189  A    between atoms: _463  and  _464
REMARK  190  A    between atoms: _466  and  _468
REMARK  191  A    between atoms: _468  and  _469
REMARK  192  A    between atoms: _468  and  _471
REMARK  193  A    between atoms: _471  and  _472
REMARK  194  A    between atoms: _475  and  _477
REMARK  195  A    between atoms: _477  and  _478
REMARK  196  A    between atoms: _477  and  _480
REMARK  197  A    between atoms: _480  and  _481
REMARK  198  A    between atoms: _484  and  _486
REMARK  199  A    between atoms: _486  and  _487
REMARK  200  A    between atoms: _486  and  _489
REMARK  201  A    between atoms: _489  and  _490
REMARK  202  A    between atoms: _495  and  _497
REMARK  203  A    between atoms: _497  and  _498
REMARK  204  A    between atoms: _497  and  _500
REMARK  205  A    between atoms: _500  and  _501
REMARK  206  A    between atoms: _501  and  _502
REMARK  207  A    between atoms: _502  and  _503
REMARK  208  A    between atoms: _512  and  _514
REMARK  209  A    between atoms: _514  and  _515
REMARK  210  A    between atoms: _514  and  _517
REMARK  211  A    between atoms: _517  and  _518
REMARK  212  A    between atoms: _518  and  _519
REMARK  213  A    between atoms: _519  and  _520
REMARK  214  A    between atoms: _529  and  _531
REMARK  215  A    between atoms: _531  and  _532
REMARK  216  A    between atoms: _531  and  _534
REMARK  217  A    between atoms: _534  and  _535
REMARK  218  A    between atoms: _537  and  _539
REMARK  219  A    between atoms: _539  and  _540
REMARK  220  A    between atoms: _539  and  _542
REMARK  221  A    between atoms: _542  and  _543
REMARK  222  A    between atoms: _543  and  _544
REMARK  223  A    between atoms: _549  and  _551
REMARK  224  A    between atoms: _551  and  _552
REMARK  225  A    between atoms: _551  and  _554
REMARK  226  A    between atoms: _554  and  _555
REMARK  227  A    between atoms: _557  and  _559
REMARK  228  A    between atoms: _559  and  _560
REMARK  229  A    between atoms: _559  and  _562
REMARK  230  A    between atoms: _562  and  _563
REMARK  231  A    between atoms: _565  and  _567
REMARK  232  A    between atoms: _567  and  _568
REMARK  233  A    between atoms: _567  and  _570
REMARK  234  A    between atoms: _570  and  _571
REMARK  235  A    between atoms: _574  and  _576
REMARK  236  A    between atoms: _576  and  _577
REMARK  237  A    between atoms: _576  and  _579
REMARK  238  A    between atoms: _579  and  _580
REMARK  239  A    between atoms: _583  and  _585
REMARK  240  A    between atoms: _585  and  _586
REMARK  241  A    between atoms: _585  and  _588
REMARK  242  A    between atoms: _591  and  _593
REMARK  243  A    between atoms: _593  and  _594
REMARK  244  A    between atoms: _596  and  _598
REMARK  245  A    between atoms: _598  and  _599
REMARK  246  A    between atoms: _602  and  _604
REMARK  247  A    between atoms: _604  and  _605
REMARK  248  A    between atoms: _604  and  _607
REMARK                            x       y       z     vdW  Elec       q    Type
REMARK                         _______ _______ _______ _____ _____    ______ ____
ROOT
ATOM      1  O   HOH     1      20.650  19.493  15.940  0.00  0.00    +0.000 OA
ENDROOT
TORSDOF 0
REMARK  Name = ../refined-set-2016/2qmg/2qmg_pocket.pdb
REMARK  248 active torsions:
REMARK  status: ('A' for Active; 'I' for Inactive)
REMARK    1  A    between atoms: _1  and  _3
REMARK    2  A    between atoms: _3  and  _4
REMARK    3  A    between atoms: _3  and  _6
REMARK    4  A    between atoms: _6  and  _7
REMARK    5  A    between atoms: _7  and  _8
REMARK    6  A    between atoms: _8  and  _9
REMARK    7  A    between atoms: _9  and  _10
REMARK    8  A    between atoms: _14  and  _16
REMARK    9  A    between atoms: _16  and  _17
REMARK   10  A    between atoms: _16  and  _19
REMARK   11  A    between atoms: _19  and  _20
REMARK   12  A    between atoms: _22  and  _24
REMARK   13  A    between atoms: _24  and  _25
REMARK   14  A    between atoms: _27  and  _29
REMARK   15  A    between atoms: _29  and  _30
REMARK   16  A    between atoms: _29  and  _32
REMARK   17  A    between atoms: _32  and  _33
REMARK   18  A    between atoms: _33  and  _34
REMARK   19  A    between atoms: _39  and  _41
REMARK   20  A    between atoms: _41  and  _42
REMARK   21  A    between atoms: _44  and  _46
REMARK   22  A    between atoms: _46  and  _47
REMARK   23  A    between atoms: _46  and  _49
REMARK   24  A    between atoms: _49  and  _50
REMARK   25  A    between atoms: _55  and  _56
REMARK   26  A    between atoms: _58  and  _60
REMARK   27  A    between atoms: _60  and  _61
REMARK   28  A    between atoms: _60  and  _63
REMARK   29  A    between atoms: _63  and  _64
REMARK   30  A    between atoms: _67  and  _69
REMARK   31  A    between atoms: _69  and  _70
REMARK   32  A    between atoms: _69  and  _72
REMARK   33  A    between atoms: _75  and  _77
REMARK   34  A    between atoms: _77  and  _78
REMARK   35  A    between atoms: _77  and  _80
REMARK   36  A    between atoms: _80  and  _81
REMARK   37  A    between atoms: _84  and  _86
REMARK   38  A    between atoms: _86  and  _87
REMARK   39  A    between atoms: _86  and  _89
REMARK   40  A    between atoms: _89  and  _90
REMARK   41  A    between atoms: _93  and  _95
REMARK   42  A    between atoms: _95  and  _96
REMARK   43  A    between atoms: _98  and  _100
REMARK   44  A    between atoms: _100  and  _101
REMARK   45  A    between atoms: _100  and  _103
REMARK   46  A    between atoms: _103  and  _104
REMARK   47  A    between atoms: _106  and  _108
REMARK   48  A    between atoms: _108  and  _109
REMARK   49  A    between atoms: _108  and  _111
REMARK   50  A    between atoms: _111  and  _112
REMARK   51  A    between atoms: _114  and  _116
REMARK   52  A    between atoms: _116  and  _117
REMARK   53  A    between atoms: _116  and  _119
REMARK   54  A    between atoms: _119  and  _120
REMARK   55  A    between atoms: _125  and  _127
REMARK   56  A    between atoms: _127  and  _128
REMARK   57  A    between atoms: _127  and  _130
REMARK   58  A    between atoms: _130  and  _131
REMARK   59  A    between atoms: _136  and  _137
REMARK   60  A    between atoms: _139  and  _141
REMARK   61  A    between atoms: _141  and  _142
REMARK   62  A    between atoms: _141  and  _144
REMARK   63  A    between atoms: _148  and  _149
REMARK   64  A    between atoms: _154  and  _156
REMARK   65  A    between atoms: _156  and  _157
REMARK   66  A    between atoms: _156  and  _159
REMARK   67  A    between atoms: _159  and  _160
REMARK   68  A    between atoms: _165  and  _166
REMARK   69  A    between atoms: _168  and  _170
REMARK   70  A    between atoms: _170  and  _171
REMARK   71  A    between atoms: _170  and  _173
REMARK   72  A    between atoms: _173  and  _174
REMARK   73  A    between atoms: _177  and  _179
REMARK   74  A    between atoms: _179  and  _180
REMARK   75  A    between atoms: _179  and  _182
REMARK   76  A    between atoms: _182  and  _183
REMARK   77  A    between atoms: _183  and  _184
REMARK   78  A    between atoms: _189  and  _191
REMARK   79  A    between atoms: _191  and  _192
REMARK   80  A    between atoms: _194  and  _196
REMARK   81  A    between atoms: _196  and  _197
REMARK   82  A    between atoms: _196  and  _199
REMARK   83  A    between atoms: _199  and  _200
REMARK   84  A    between atoms: _200  and  _201
REMARK   85  A    between atoms: _201  and  _202
REMARK   86  A    between atoms: _202  and  _203
REMARK   87  A    between atoms: _207  and  _209
REMARK   88  A    between atoms: _209  and  _210
REMARK   89  A    between atoms: _209  and  _212
REMARK   90  A    between atoms: _212  and  _213
REMARK   91  A    between atoms: _223  and  _225
REMARK   92  A    between atoms: _225  and  _226
REMARK   93  A    between atoms: _225  and  _228
REMARK   94  A    between atoms: _228  and  _229
REMARK   95  A    between atoms: _232  and  _234
REMARK   96  A    between atoms: _234  and  _235
REMARK   97  A    between atoms: _234  and  _237
REMARK   98  A    between atoms: _237  and  _238
REMARK   99  A    between atoms: _238  and  _239
REMARK  100  A    between atoms: _239  and  _240
REMARK  101  A    between atoms: _240  and  _241
REMARK  102  A    between atoms: _245  and  _247
REMARK  103  A    between atoms: _247  and  _248
REMARK  104  A    between atoms: _247  and  _250
REMARK  105  A    between atoms: _250  and  _251
REMARK  106  A    between atoms: _257  and  _259
REMARK  107  A    between atoms: _259  and  _260
REMARK  108  A    between atoms: _259  and  _262
REMARK  109  A    between atoms: _262  and  _263
REMARK  110  A    between atoms: _269  and  _271
REMARK  111  A    between atoms: _271  and  _272
REMARK  112  A    between atoms: _271  and  _274
REMARK  113  A    between atoms: _274  and  _275
REMARK  114  A    between atoms: _278  and  _280
REMARK  115  A    between atoms: _280  and  _281
REMARK  116  A    between atoms: _280  and  _283
REMARK  117  A    between atoms: _283  and  _284
REMARK  118  A    between atoms: _286  and  _288
REMARK  119  A    between atoms: _288  and  _289
REMARK  120  A    between atoms: _288  and  _291
REMARK  121  A    between atoms: _291  and  _292
REMARK  122  A    between atoms: _302  and  _304
REMARK  123  A    between atoms: _304  and  _305
REMARK  124  A    between atoms: _307  and  _309
REMARK  125  A    between atoms: _309  and  _310
REMARK  126  A    between atoms: _309  and  _312
REMARK  127  A    between atoms: _312  and  _313
REMARK  128  A    between atoms: _316  and  _318
REMARK  129  A    between atoms: _318  and  _319
REMARK  130  A    between atoms: _318  and  _321
REMARK  131  A    between atoms: _321  and  _322
REMARK  132  A    between atoms: _325  and  _327
REMARK  133  A    between atoms: _327  and  _328
REMARK  134  A    between atoms: _330  and  _332
REMARK  135  A    between atoms: _332  and  _333
REMARK  136  A    between atoms: _332  and  _335
REMARK  137  A    between atoms: _335  and  _336
REMARK  138  A    between atoms: _339  and  _341
REMARK  139  A    between atoms: _341  and  _342
REMARK  140  A    between atoms: _345  and  _347
REMARK  141  A    between atoms: _347  and  _348
REMARK  142  A    between atoms: _347  and  _350
REMARK  143  A    between atoms: _350  and  _351
REMARK  144  A    between atoms: _354  and  _356
REMARK  145  A    between atoms: _356  and  _357
REMARK  146  A    between atoms: _360  and  _362
REMARK  147  A    between atoms: _362  and  _363
REMARK  148  A    between atoms: _362  and  _365
REMARK  149  A    between atoms: _365  and  _366
REMARK  150  A    between atoms: _366  and  _367
REMARK  151  A    between atoms: _367  and  _368
REMARK  152  A    between atoms: _377  and  _379
REMARK  153  A    between atoms: _379  and  _380
REMARK  154  A    between atoms: _379  and  _382
REMARK  155  A    between atoms: _382  and  _383
REMARK  156  A    between atoms: _386  and  _388
REMARK  157  A    between atoms: _388  and  _389
REMARK  158  A    between atoms: _388  and  _391
REMARK  159  A    between atoms: _391  and  _392
REMARK  160  A    between atoms: _397  and  _398
REMARK  161  A    between atoms: _400  and  _402
REMARK  162  A    between atoms: _402  and  _403
REMARK  163  A    between atoms: _402  and  _405
REMARK  164  A    between atoms: _405  and  _406
REMARK  165  A    between atoms: _411  and  _412
REMARK  166  A    between atoms: _414  and  _416
REMARK  167  A    between atoms: _416  and  _417
REMARK  168  A    between atoms: _416  and  _419
REMARK  169  A    between atoms: _419  and  _420
REMARK  170  A    between atoms: _420  and  _421
REMARK  171  A    between atoms: _421  and  _422
REMARK  172  A    between atoms: _422  and  _423
REMARK  173  A    between atoms: _427  and  _429
REMARK  174  A    between atoms: _429  and  _430
REMARK  175  A    between atoms: _429  and  _432
REMARK  176  A    between atoms: _432  and  _433
REMARK  177  A    between atoms: _436  and  _438
REMARK  178  A    between atoms: _438  and  _439
REMARK  179  A    between atoms: _438  and  _441
REMARK  180  A    between atoms: _444  and  _446
REMARK  181  A    between atoms: _446  and  _447
REMARK  182  A    between atoms: _446  and  _449
REMARK  183  A    between atoms: _449  and  _450
REMARK  184  A    between atoms: _453  and  _455
REMARK  185  A    between atoms: _455  and  _456
REMARK  186  A    between atoms: _455  and  _458
REMARK  187  A    between atoms: _458  and  _459
REMARK  188  A    between atoms: _461  and  _463
REMARK  189  A    between atoms: _463  and  _464
REMARK  190  A    between atoms: _466  and  _468
REMARK  191  A    between atoms: _468  and  _469
REMARK  192  A    between atoms: _468  and  _471
REMARK  193  A    between atoms: _471  and  _472
REMARK  194  A    between atoms: _475  and  _477
REMARK  195  A    between atoms: _477  and  _478
REMARK  196  A    between atoms: _477  and  _480
REMARK  197  A    between atoms: _480  and  _481
REMARK  198  A    between atoms: _484  and  _486
REMARK  199  A    between atoms: _486  and  _487
REMARK  200  A    between atoms: _486  and  _489
REMARK  201  A    between atoms: _489  and  _490
REMARK  202  A    between atoms: _495  and  _497
REMARK  203  A    between atoms: _497  and  _498
REMARK  204  A    between atoms: _497  and  _500
REMARK  205  A    between atoms: _500  and  _501
REMARK  206  A    between atoms: _501  and  _502
REMARK  207  A    between atoms: _502  and  _503
REMARK  208  A    between atoms: _512  and  _514
REMARK  209  A    between atoms: _514  and  _515
REMARK  210  A    between atoms: _514  and  _517
REMARK  211  A    between atoms: _517  and  _518
REMARK  212  A    between atoms: _518  and  _519
REMARK  213  A    between atoms: _519  and  _520
REMARK  214  A    between atoms: _529  and  _531
REMARK  215  A    between atoms: _531  and  _532
REMARK  216  A    between atoms: _531  and  _534
REMARK  217  A    between atoms: _534  and  _535
REMARK  218  A    between atoms: _537  and  _539
REMARK  219  A    between atoms: _539  and  _540
REMARK  220  A    between atoms: _539  and  _542
REMARK  221  A    between atoms: _542  and  _543
REMARK  222  A    between atoms: _543  and  _544
REMARK  223  A    between atoms: _549  and  _551
REMARK  224  A    between atoms: _551  and  _552
REMARK  225  A    between atoms: _551  and  _554
REMARK  226  A    between atoms: _554  and  _555
REMARK  227  A    between atoms: _557  and  _559
REMARK  228  A    between atoms: _559  and  _560
REMARK  229  A    between atoms: _559  and  _562
REMARK  230  A    between atoms: _562  and  _563
REMARK  231  A    between atoms: _565  and  _567
REMARK  232  A    between atoms: _567  and  _568
REMARK  233  A    between atoms: _567  and  _570
REMARK  234  A    between atoms: _570  and  _571
REMARK  235  A    between atoms: _574  and  _576
REMARK  236  A    between atoms: _576  and  _577
REMARK  237  A    between atoms: _576  and  _579
REMARK  238  A    between atoms: _579  and  _580
REMARK  239  A    between atoms: _583  and  _585
REMARK  240  A    between atoms: _585  and  _586
REMARK  241  A    between atoms: _585  and  _588
REMARK  242  A    between atoms: _591  and  _593
REMARK  243  A    between atoms: _593  and  _594
REMARK  244  A    between atoms: _596  and  _598
REMARK  245  A    between atoms: _598  and  _599
REMARK  246  A    between atoms: _602  and  _604
REMARK  247  A    between atoms: _604  and  _605
REMARK  248  A    between atoms: _604  and  _607
REMARK                            x       y       z     vdW  Elec       q    Type
REMARK                         _______ _______ _______ _____ _____    ______ ____
ROOT
ATOM      1  O   HOH     1      17.874  16.892  26.739  0.00  0.00    +0.000 OA
ENDROOT
TORSDOF 0
REMARK  Name = ../refined-set-2016/2qmg/2qmg_pocket.pdb
REMARK  248 active torsions:
REMARK  status: ('A' for Active; 'I' for Inactive)
REMARK    1  A    between atoms: _1  and  _3
REMARK    2  A    between atoms: _3  and  _4
REMARK    3  A    between atoms: _3  and  _6
REMARK    4  A    between atoms: _6  and  _7
REMARK    5  A    between atoms: _7  and  _8
REMARK    6  A    between atoms: _8  and  _9
REMARK    7  A    between atoms: _9  and  _10
REMARK    8  A    between atoms: _14  and  _16
REMARK    9  A    between atoms: _16  and  _17
REMARK   10  A    between atoms: _16  and  _19
REMARK   11  A    between atoms: _19  and  _20
REMARK   12  A    between atoms: _22  and  _24
REMARK   13  A    between atoms: _24  and  _25
REMARK   14  A    between atoms: _27  and  _29
REMARK   15  A    between atoms: _29  and  _30
REMARK   16  A    between atoms: _29  and  _32
REMARK   17  A    between atoms: _32  and  _33
REMARK   18  A    between atoms: _33  and  _34
REMARK   19  A    between atoms: _39  and  _41
REMARK   20  A    between atoms: _41  and  _42
REMARK   21  A    between atoms: _44  and  _46
REMARK   22  A    between atoms: _46  and  _47
REMARK   23  A    between atoms: _46  and  _49
REMARK   24  A    between atoms: _49  and  _50
REMARK   25  A    between atoms: _55  and  _56
REMARK   26  A    between atoms: _58  and  _60
REMARK   27  A    between atoms: _60  and  _61
REMARK   28  A    between atoms: _60  and  _63
REMARK   29  A    between atoms: _63  and  _64
REMARK   30  A    between atoms: _67  and  _69
REMARK   31  A    between atoms: _69  and  _70
REMARK   32  A    between atoms: _69  and  _72
REMARK   33  A    between atoms: _75  and  _77
REMARK   34  A    between atoms: _77  and  _78
REMARK   35  A    between atoms: _77  and  _80
REMARK   36  A    between atoms: _80  and  _81
REMARK   37  A    between atoms: _84  and  _86
REMARK   38  A    between atoms: _86  and  _87
REMARK   39  A    between atoms: _86  and  _89
REMARK   40  A    between atoms: _89  and  _90
REMARK   41  A    between atoms: _93  and  _95
REMARK   42  A    between atoms: _95  and  _96
REMARK   43  A    between atoms: _98  and  _100
REMARK   44  A    between atoms: _100  and  _101
REMARK   45  A    between atoms: _100  and  _103
REMARK   46  A    between atoms: _103  and  _104
REMARK   47  A    between atoms: _106  and  _108
REMARK   48  A    between atoms: _108  and  _109
REMARK   49  A    between atoms: _108  and  _111
REMARK   50  A    between atoms: _111  and  _112
REMARK   51  A    between atoms: _114  and  _116
REMARK   52  A    between atoms: _116  and  _117
REMARK   53  A    between atoms: _116  and  _119
REMARK   54  A    between atoms: _119  and  _120
REMARK   55  A    between atoms: _125  and  _127
REMARK   56  A    between atoms: _127  and  _128
REMARK   57  A    between atoms: _127  and  _130
REMARK   58  A    between atoms: _130  and  _131
REMARK   59  A    between atoms: _136  and  _137
REMARK   60  A    between atoms: _139  and  _141
REMARK   61  A    between atoms: _141  and  _142
REMARK   62  A    between atoms: _141  and  _144
REMARK   63  A    between atoms: _148  and  _149
REMARK   64  A    between atoms: _154  and  _156
REMARK   65  A    between atoms: _156  and  _157
REMARK   66  A    between atoms: _156  and  _159
REMARK   67  A    between atoms: _159  and  _160
REMARK   68  A    between atoms: _165  and  _166
REMARK   69  A    between atoms: _168  and  _170
REMARK   70  A    between atoms: _170  and  _171
REMARK   71  A    between atoms: _170  and  _173
REMARK   72  A    between atoms: _173  and  _174
REMARK   73  A    between atoms: _177  and  _179
REMARK   74  A    between atoms: _179  and  _180
REMARK   75  A    between atoms: _179  and  _182
REMARK   76  A    between atoms: _182  and  _183
REMARK   77  A    between atoms: _183  and  _184
REMARK   78  A    between atoms: _189  and  _191
REMARK   79  A    between atoms: _191  and  _192
REMARK   80  A    between atoms: _194  and  _196
REMARK   81  A    between atoms: _196  and  _197
REMARK   82  A    between atoms: _196  and  _199
REMARK   83  A    between atoms: _199  and  _200
REMARK   84  A    between atoms: _200  and  _201
REMARK   85  A    between atoms: _201  and  _202
REMARK   86  A    between atoms: _202  and  _203
REMARK   87  A    between atoms: _207  and  _209
REMARK   88  A    between atoms: _209  and  _210
REMARK   89  A    between atoms: _209  and  _212
REMARK   90  A    between atoms: _212  and  _213
REMARK   91  A    between atoms: _223  and  _225
REMARK   92  A    between atoms: _225  and  _226
REMARK   93  A    between atoms: _225  and  _228
REMARK   94  A    between atoms: _228  and  _229
REMARK   95  A    between atoms: _232  and  _234
REMARK   96  A    between atoms: _234  and  _235
REMARK   97  A    between atoms: _234  and  _237
REMARK   98  A    between atoms: _237  and  _238
REMARK   99  A    between atoms: _238  and  _239
REMARK  100  A    between atoms: _239  and  _240
REMARK  101  A    between atoms: _240  and  _241
REMARK  102  A    between atoms: _245  and  _247
REMARK  103  A    between atoms: _247  and  _248
REMARK  104  A    between atoms: _247  and  _250
REMARK  105  A    between atoms: _250  and  _251
REMARK  106  A    between atoms: _257  and  _259
REMARK  107  A    between atoms: _259  and  _260
REMARK  108  A    between atoms: _259  and  _262
REMARK  109  A    between atoms: _262  and  _263
REMARK  110  A    between atoms: _269  and  _271
REMARK  111  A    between atoms: _271  and  _272
REMARK  112  A    between atoms: _271  and  _274
REMARK  113  A    between atoms: _274  and  _275
REMARK  114  A    between atoms: _278  and  _280
REMARK  115  A    between atoms: _280  and  _281
REMARK  116  A    between atoms: _280  and  _283
REMARK  117  A    between atoms: _283  and  _284
REMARK  118  A    between atoms: _286  and  _288
REMARK  119  A    between atoms: _288  and  _289
REMARK  120  A    between atoms: _288  and  _291
REMARK  121  A    between atoms: _291  and  _292
REMARK  122  A    between atoms: _302  and  _304
REMARK  123  A    between atoms: _304  and  _305
REMARK  124  A    between atoms: _307  and  _309
REMARK  125  A    between atoms: _309  and  _310
REMARK  126  A    between atoms: _309  and  _312
REMARK  127  A    between atoms: _312  and  _313
REMARK  128  A    between atoms: _316  and  _318
REMARK  129  A    between atoms: _318  and  _319
REMARK  130  A    between atoms: _318  and  _321
REMARK  131  A    between atoms: _321  and  _322
REMARK  132  A    between atoms: _325  and  _327
REMARK  133  A    between atoms: _327  and  _328
REMARK  134  A    between atoms: _330  and  _332
REMARK  135  A    between atoms: _332  and  _333
REMARK  136  A    between atoms: _332  and  _335
REMARK  137  A    between atoms: _335  and  _336
REMARK  138  A    between atoms: _339  and  _341
REMARK  139  A    between atoms: _341  and  _342
REMARK  140  A    between atoms: _345  and  _347
REMARK  141  A    between atoms: _347  and  _348
REMARK  142  A    between atoms: _347  and  _350
REMARK  143  A    between atoms: _350  and  _351
REMARK  144  A    between atoms: _354  and  _356
REMARK  145  A    between atoms: _356  and  _357
REMARK  146  A    between atoms: _360  and  _362
REMARK  147  A    between atoms: _362  and  _363
REMARK  148  A    between atoms: _362  and  _365
REMARK  149  A    between atoms: _365  and  _366
REMARK  150  A    between atoms: _366  and  _367
REMARK  151  A    between atoms: _367  and  _368
REMARK  152  A    between atoms: _377  and  _379
REMARK  153  A    between atoms: _379  and  _380
REMARK  154  A    between atoms: _379  and  _382
REMARK  155  A    between atoms: _382  and  _383
REMARK  156  A    between atoms: _386  and  _388
REMARK  157  A    between atoms: _388  and  _389
REMARK  158  A    between atoms: _388  and  _391
REMARK  159  A    between atoms: _391  and  _392
REMARK  160  A    between atoms: _397  and  _398
REMARK  161  A    between atoms: _400  and  _402
REMARK  162  A    between atoms: _402  and  _403
REMARK  163  A    between atoms: _402  and  _405
REMARK  164  A    between atoms: _405  and  _406
REMARK  165  A    between atoms: _411  and  _412
REMARK  166  A    between atoms: _414  and  _416
REMARK  167  A    between atoms: _416  and  _417
REMARK  168  A    between atoms: _416  and  _419
REMARK  169  A    between atoms: _419  and  _420
REMARK  170  A    between atoms: _420  and  _421
REMARK  171  A    between atoms: _421  and  _422
REMARK  172  A    between atoms: _422  and  _423
REMARK  173  A    between atoms: _427  and  _429
REMARK  174  A    between atoms: _429  and  _430
REMARK  175  A    between atoms: _429  and  _432
REMARK  176  A    between atoms: _432  and  _433
REMARK  177  A    between atoms: _436  and  _438
REMARK  178  A    between atoms: _438  and  _439
REMARK  179  A    between atoms: _438  and  _441
REMARK  180  A    between atoms: _444  and  _446
REMARK  181  A    between atoms: _446  and  _447
REMARK  182  A    between atoms: _446  and  _449
REMARK  183  A    between atoms: _449  and  _450
REMARK  184  A    between atoms: _453  and  _455
REMARK  185  A    between atoms: _455  and  _456
REMARK  186  A    between atoms: _455  and  _458
REMARK  187  A    between atoms: _458  and  _459
REMARK  188  A    between atoms: _461  and  _463
REMARK  189  A    between atoms: _463  and  _464
REMARK  190  A    between atoms: _466  and  _468
REMARK  191  A    between atoms: _468  and  _469
REMARK  192  A    between atoms: _468  and  _471
REMARK  193  A    between atoms: _471  and  _472
REMARK  194  A    between atoms: _475  and  _477
REMARK  195  A    between atoms: _477  and  _478
REMARK  196  A    between atoms: _477  and  _480
REMARK  197  A    between atoms: _480  and  _481
REMARK  198  A    between atoms: _484  and  _486
REMARK  199  A    between atoms: _486  and  _487
REMARK  200  A    between atoms: _486  and  _489
REMARK  201  A    between atoms: _489  and  _490
REMARK  202  A    between atoms: _495  and  _497
REMARK  203  A    between atoms: _497  and  _498
REMARK  204  A    between atoms: _497  and  _500
REMARK  205  A    between atoms: _500  and  _501
REMARK  206  A    between atoms: _501  and  _502
REMARK  207  A    between atoms: _502  and  _503
REMARK  208  A    between atoms: _512  and  _514
REMARK  209  A    between atoms: _514  and  _515
REMARK  210  A    between atoms: _514  and  _517
REMARK  211  A    between atoms: _517  and  _518
REMARK  212  A    between atoms: _518  and  _519
REMARK  213  A    between atoms: _519  and  _520
REMARK  214  A    between atoms: _529  and  _531
REMARK  215  A    between atoms: _531  and  _532
REMARK  216  A    between atoms: _531  and  _534
REMARK  217  A    between atoms: _534  and  _535
REMARK  218  A    between atoms: _537  and  _539
REMARK  219  A    between atoms: _539  and  _540
REMARK  220  A    between atoms: _539  and  _542
REMARK  221  A    between atoms: _542  and  _543
REMARK  222  A    between atoms: _543  and  _544
REMARK  223  A    between atoms: _549  and  _551
REMARK  224  A    between atoms: _551  and  _552
REMARK  225  A    between atoms: _551  and  _554
REMARK  226  A    between atoms: _554  and  _555
REMARK  227  A    between atoms: _557  and  _559
REMARK  228  A    between atoms: _559  and  _560
REMARK  229  A    between atoms: _559  and  _562
REMARK  230  A    between atoms: _562  and  _563
REMARK  231  A    between atoms: _565  and  _567
REMARK  232  A    between atoms: _567  and  _568
REMARK  233  A    between atoms: _567  and  _570
REMARK  234  A    between atoms: _570  and  _571
REMARK  235  A    between atoms: _574  and  _576
REMARK  236  A    between atoms: _576  and  _577
REMARK  237  A    between atoms: _576  and  _579
REMARK  238  A    between atoms: _579  and  _580
REMARK  239  A    between atoms: _583  and  _585
REMARK  240  A    between atoms: _585  and  _586
REMARK  241  A    between atoms: _585  and  _588
REMARK  242  A    between atoms: _591  and  _593
REMARK  243  A    between atoms: _593  and  _594
REMARK  244  A    between atoms: _596  and  _598
REMARK  245  A    between atoms: _598  and  _599
REMARK  246  A    between atoms: _602  and  _604
REMARK  247  A    between atoms: _604  and  _605
REMARK  248  A    between atoms: _604  and  _607
REMARK                            x       y       z     vdW  Elec       q    Type
REMARK                         _______ _______ _______ _____ _____    ______ ____
ROOT
ATOM      1  O   HOH     1      29.056  17.740  26.995  0.00  0.00    +0.000 OA
ENDROOT
TORSDOF 0
REMARK  Name = ../refined-set-2016/2qmg/2qmg_pocket.pdb
REMARK  248 active torsions:
REMARK  status: ('A' for Active; 'I' for Inactive)
REMARK    1  A    between atoms: _1  and  _3
REMARK    2  A    between atoms: _3  and  _4
REMARK    3  A    between atoms: _3  and  _6
REMARK    4  A    between atoms: _6  and  _7
REMARK    5  A    between atoms: _7  and  _8
REMARK    6  A    between atoms: _8  and  _9
REMARK    7  A    between atoms: _9  and  _10
REMARK    8  A    between atoms: _14  and  _16
REMARK    9  A    between atoms: _16  and  _17
REMARK   10  A    between atoms: _16  and  _19
REMARK   11  A    between atoms: _19  and  _20
REMARK   12  A    between atoms: _22  and  _24
REMARK   13  A    between atoms: _24  and  _25
REMARK   14  A    between atoms: _27  and  _29
REMARK   15  A    between atoms: _29  and  _30
REMARK   16  A    between atoms: _29  and  _32
REMARK   17  A    between atoms: _32  and  _33
REMARK   18  A    between atoms: _33  and  _34
REMARK   19  A    between atoms: _39  and  _41
REMARK   20  A    between atoms: _41  and  _42
REMARK   21  A    between atoms: _44  and  _46
REMARK   22  A    between atoms: _46  and  _47
REMARK   23  A    between atoms: _46  and  _49
REMARK   24  A    between atoms: _49  and  _50
REMARK   25  A    between atoms: _55  and  _56
REMARK   26  A    between atoms: _58  and  _60
REMARK   27  A    between atoms: _60  and  _61
REMARK   28  A    between atoms: _60  and  _63
REMARK   29  A    between atoms: _63  and  _64
REMARK   30  A    between atoms: _67  and  _69
REMARK   31  A    between atoms: _69  and  _70
REMARK   32  A    between atoms: _69  and  _72
REMARK   33  A    between atoms: _75  and  _77
REMARK   34  A    between atoms: _77  and  _78
REMARK   35  A    between atoms: _77  and  _80
REMARK   36  A    between atoms: _80  and  _81
REMARK   37  A    between atoms: _84  and  _86
REMARK   38  A    between atoms: _86  and  _87
REMARK   39  A    between atoms: _86  and  _89
REMARK   40  A    between atoms: _89  and  _90
REMARK   41  A    between atoms: _93  and  _95
REMARK   42  A    between atoms: _95  and  _96
REMARK   43  A    between atoms: _98  and  _100
REMARK   44  A    between atoms: _100  and  _101
REMARK   45  A    between atoms: _100  and  _103
REMARK   46  A    between atoms: _103  and  _104
REMARK   47  A    between atoms: _106  and  _108
REMARK   48  A    between atoms: _108  and  _109
REMARK   49  A    between atoms: _108  and  _111
REMARK   50  A    between atoms: _111  and  _112
REMARK   51  A    between atoms: _114  and  _116
REMARK   52  A    between atoms: _116  and  _117
REMARK   53  A    between atoms: _116  and  _119
REMARK   54  A    between atoms: _119  and  _120
REMARK   55  A    between atoms: _125  and  _127
REMARK   56  A    between atoms: _127  and  _128
REMARK   57  A    between atoms: _127  and  _130
REMARK   58  A    between atoms: _130  and  _131
REMARK   59  A    between atoms: _136  and  _137
REMARK   60  A    between atoms: _139  and  _141
REMARK   61  A    between atoms: _141  and  _142
REMARK   62  A    between atoms: _141  and  _144
REMARK   63  A    between atoms: _148  and  _149
REMARK   64  A    between atoms: _154  and  _156
REMARK   65  A    between atoms: _156  and  _157
REMARK   66  A    between atoms: _156  and  _159
REMARK   67  A    between atoms: _159  and  _160
REMARK   68  A    between atoms: _165  and  _166
REMARK   69  A    between atoms: _168  and  _170
REMARK   70  A    between atoms: _170  and  _171
REMARK   71  A    between atoms: _170  and  _173
REMARK   72  A    between atoms: _173  and  _174
REMARK   73  A    between atoms: _177  and  _179
REMARK   74  A    between atoms: _179  and  _180
REMARK   75  A    between atoms: _179  and  _182
REMARK   76  A    between atoms: _182  and  _183
REMARK   77  A    between atoms: _183  and  _184
REMARK   78  A    between atoms: _189  and  _191
REMARK   79  A    between atoms: _191  and  _192
REMARK   80  A    between atoms: _194  and  _196
REMARK   81  A    between atoms: _196  and  _197
REMARK   82  A    between atoms: _196  and  _199
REMARK   83  A    between atoms: _199  and  _200
REMARK   84  A    between atoms: _200  and  _201
REMARK   85  A    between atoms: _201  and  _202
REMARK   86  A    between atoms: _202  and  _203
REMARK   87  A    between atoms: _207  and  _209
REMARK   88  A    between atoms: _209  and  _210
REMARK   89  A    between atoms: _209  and  _212
REMARK   90  A    between atoms: _212  and  _213
REMARK   91  A    between atoms: _223  and  _225
REMARK   92  A    between atoms: _225  and  _226
REMARK   93  A    between atoms: _225  and  _228
REMARK   94  A    between atoms: _228  and  _229
REMARK   95  A    between atoms: _232  and  _234
REMARK   96  A    between atoms: _234  and  _235
REMARK   97  A    between atoms: _234  and  _237
REMARK   98  A    between atoms: _237  and  _238
REMARK   99  A    between atoms: _238  and  _239
REMARK  100  A    between atoms: _239  and  _240
REMARK  101  A    between atoms: _240  and  _241
REMARK  102  A    between atoms: _245  and  _247
REMARK  103  A    between atoms: _247  and  _248
REMARK  104  A    between atoms: _247  and  _250
REMARK  105  A    between atoms: _250  and  _251
REMARK  106  A    between atoms: _257  and  _259
REMARK  107  A    between atoms: _259  and  _260
REMARK  108  A    between atoms: _259  and  _262
REMARK  109  A    between atoms: _262  and  _263
REMARK  110  A    between atoms: _269  and  _271
REMARK  111  A    between atoms: _271  and  _272
REMARK  112  A    between atoms: _271  and  _274
REMARK  113  A    between atoms: _274  and  _275
REMARK  114  A    between atoms: _278  and  _280
REMARK  115  A    between atoms: _280  and  _281
REMARK  116  A    between atoms: _280  and  _283
REMARK  117  A    between atoms: _283  and  _284
REMARK  118  A    between atoms: _286  and  _288
REMARK  119  A    between atoms: _288  and  _289
REMARK  120  A    between atoms: _288  and  _291
REMARK  121  A    between atoms: _291  and  _292
REMARK  122  A    between atoms: _302  and  _304
REMARK  123  A    between atoms: _304  and  _305
REMARK  124  A    between atoms: _307  and  _309
REMARK  125  A    between atoms: _309  and  _310
REMARK  126  A    between atoms: _309  and  _312
REMARK  127  A    between atoms: _312  and  _313
REMARK  128  A    between atoms: _316  and  _318
REMARK  129  A    between atoms: _318  and  _319
REMARK  130  A    between atoms: _318  and  _321
REMARK  131  A    between atoms: _321  and  _322
REMARK  132  A    between atoms: _325  and  _327
REMARK  133  A    between atoms: _327  and  _328
REMARK  134  A    between atoms: _330  and  _332
REMARK  135  A    between atoms: _332  and  _333
REMARK  136  A    between atoms: _332  and  _335
REMARK  137  A    between atoms: _335  and  _336
REMARK  138  A    between atoms: _339  and  _341
REMARK  139  A    between atoms: _341  and  _342
REMARK  140  A    between atoms: _345  and  _347
REMARK  141  A    between atoms: _347  and  _348
REMARK  142  A    between atoms: _347  and  _350
REMARK  143  A    between atoms: _350  and  _351
REMARK  144  A    between atoms: _354  and  _356
REMARK  145  A    between atoms: _356  and  _357
REMARK  146  A    between atoms: _360  and  _362
REMARK  147  A    between atoms: _362  and  _363
REMARK  148  A    between atoms: _362  and  _365
REMARK  149  A    between atoms: _365  and  _366
REMARK  150  A    between atoms: _366  and  _367
REMARK  151  A    between atoms: _367  and  _368
REMARK  152  A    between atoms: _377  and  _379
REMARK  153  A    between atoms: _379  and  _380
REMARK  154  A    between atoms: _379  and  _382
REMARK  155  A    between atoms: _382  and  _383
REMARK  156  A    between atoms: _386  and  _388
REMARK  157  A    between atoms: _388  and  _389
REMARK  158  A    between atoms: _388  and  _391
REMARK  159  A    between atoms: _391  and  _392
REMARK  160  A    between atoms: _397  and  _398
REMARK  161  A    between atoms: _400  and  _402
REMARK  162  A    between atoms: _402  and  _403
REMARK  163  A    between atoms: _402  and  _405
REMARK  164  A    between atoms: _405  and  _406
REMARK  165  A    between atoms: _411  and  _412
REMARK  166  A    between atoms: _414  and  _416
REMARK  167  A    between atoms: _416  and  _417
REMARK  168  A    between atoms: _416  and  _419
REMARK  169  A    between atoms: _419  and  _420
REMARK  170  A    between atoms: _420  and  _421
REMARK  171  A    between atoms: _421  and  _422
REMARK  172  A    between atoms: _422  and  _423
REMARK  173  A    between atoms: _427  and  _429
REMARK  174  A    between atoms: _429  and  _430
REMARK  175  A    between atoms: _429  and  _432
REMARK  176  A    between atoms: _432  and  _433
REMARK  177  A    between atoms: _436  and  _438
REMARK  178  A    between atoms: _438  and  _439
REMARK  179  A    between atoms: _438  and  _441
REMARK  180  A    between atoms: _444  and  _446
REMARK  181  A    between atoms: _446  and  _447
REMARK  182  A    between atoms: _446  and  _449
REMARK  183  A    between atoms: _449  and  _450
REMARK  184  A    between atoms: _453  and  _455
REMARK  185  A    between atoms: _455  and  _456
REMARK  186  A    between atoms: _455  and  _458
REMARK  187  A    between atoms: _458  and  _459
REMARK  188  A    between atoms: _461  and  _463
REMARK  189  A    between atoms: _463  and  _464
REMARK  190  A    between atoms: _466  and  _468
REMARK  191  A    between atoms: _468  and  _469
REMARK  192  A    between atoms: _468  and  _471
REMARK  193  A    between atoms: _471  and  _472
REMARK  194  A    between atoms: _475  and  _477
REMARK  195  A    between atoms: _477  and  _478
REMARK  196  A    between atoms: _477  and  _480
REMARK  197  A    between atoms: _480  and  _481
REMARK  198  A    between atoms: _484  and  _486
REMARK  199  A    between atoms: _486  and  _487
REMARK  200  A    between atoms: _486  and  _489
REMARK  201  A    between atoms: _489  and  _490
REMARK  202  A    between atoms: _495  and  _497
REMARK  203  A    between atoms: _497  and  _498
REMARK  204  A    between atoms: _497  and  _500
REMARK  205  A    between atoms: _500  and  _501
REMARK  206  A    between atoms: _501  and  _502
REMARK  207  A    between atoms: _502  and  _503
REMARK  208  A    between atoms: _512  and  _514
REMARK  209  A    between atoms: _514  and  _515
REMARK  210  A    between atoms: _514  and  _517
REMARK  211  A    between atoms: _517  and  _518
REMARK  212  A    between atoms: _518  and  _519
REMARK  213  A    between atoms: _519  and  _520
REMARK  214  A    between atoms: _529  and  _531
REMARK  215  A    between atoms: _531  and  _532
REMARK  216  A    between atoms: _531  and  _534
REMARK  217  A    between atoms: _534  and  _535
REMARK  218  A    between atoms: _537  and  _539
REMARK  219  A    between atoms: _539  and  _540
REMARK  220  A    between atoms: _539  and  _542
REMARK  221  A    between atoms: _542  and  _543
REMARK  222  A    between atoms: _543  and  _544
REMARK  223  A    between atoms: _549  and  _551
REMARK  224  A    between atoms: _551  and  _552
REMARK  225  A    between atoms: _551  and  _554
REMARK  226  A    between atoms: _554  and  _555
REMARK  227  A    between atoms: _557  and  _559
REMARK  228  A    between atoms: _559  and  _560
REMARK  229  A    between atoms: _559  and  _562
REMARK  230  A    between atoms: _562  and  _563
REMARK  231  A    between atoms: _565  and  _567
REMARK  232  A    between atoms: _567  and  _568
REMARK  233  A    between atoms: _567  and  _570
REMARK  234  A    between atoms: _570  and  _571
REMARK  235  A    between atoms: _574  and  _576
REMARK  236  A    between atoms: _576  and  _577
REMARK  237  A    between atoms: _576  and  _579
REMARK  238  A    between atoms: _579  and  _580
REMARK  239  A    between atoms: _583  and  _585
REMARK  240  A    between atoms: _585  and  _586
REMARK  241  A    between atoms: _585  and  _588
REMARK  242  A    between atoms: _591  and  _593
REMARK  243  A    between atoms: _593  and  _594
REMARK  244  A    between atoms: _596  and  _598
REMARK  245  A    between atoms: _598  and  _599
REMARK  246  A    between atoms: _602  and  _604
REMARK  247  A    between atoms: _604  and  _605
REMARK  248  A    between atoms: _604  and  _607
REMARK                            x       y       z     vdW  Elec       q    Type
REMARK                         _______ _______ _______ _____ _____    ______ ____
ROOT
ATOM      1  O   HOH     1      13.800  10.688  26.732  0.00  0.00    +0.000 OA
ENDROOT
TORSDOF 0
REMARK  Name = ../refined-set-2016/2qmg/2qmg_pocket.pdb
REMARK  248 active torsions:
REMARK  status: ('A' for Active; 'I' for Inactive)
REMARK    1  A    between atoms: _1  and  _3
REMARK    2  A    between atoms: _3  and  _4
REMARK    3  A    between atoms: _3  and  _6
REMARK    4  A    between atoms: _6  and  _7
REMARK    5  A    between atoms: _7  and  _8
REMARK    6  A    between atoms: _8  and  _9
REMARK    7  A    between atoms: _9  and  _10
REMARK    8  A    between atoms: _14  and  _16
REMARK    9  A    between atoms: _16  and  _17
REMARK   10  A    between atoms: _16  and  _19
REMARK   11  A    between atoms: _19  and  _20
REMARK   12  A    between atoms: _22  and  _24
REMARK   13  A    between atoms: _24  and  _25
REMARK   14  A    between atoms: _27  and  _29
REMARK   15  A    between atoms: _29  and  _30
REMARK   16  A    between atoms: _29  and  _32
REMARK   17  A    between atoms: _32  and  _33
REMARK   18  A    between atoms: _33  and  _34
REMARK   19  A    between atoms: _39  and  _41
REMARK   20  A    between atoms: _41  and  _42
REMARK   21  A    between atoms: _44  and  _46
REMARK   22  A    between atoms: _46  and  _47
REMARK   23  A    between atoms: _46  and  _49
REMARK   24  A    between atoms: _49  and  _50
REMARK   25  A    between atoms: _55  and  _56
REMARK   26  A    between atoms: _58  and  _60
REMARK   27  A    between atoms: _60  and  _61
REMARK   28  A    between atoms: _60  and  _63
REMARK   29  A    between atoms: _63  and  _64
REMARK   30  A    between atoms: _67  and  _69
REMARK   31  A    between atoms: _69  and  _70
REMARK   32  A    between atoms: _69  and  _72
REMARK   33  A    between atoms: _75  and  _77
REMARK   34  A    between atoms: _77  and  _78
REMARK   35  A    between atoms: _77  and  _80
REMARK   36  A    between atoms: _80  and  _81
REMARK   37  A    between atoms: _84  and  _86
REMARK   38  A    between atoms: _86  and  _87
REMARK   39  A    between atoms: _86  and  _89
REMARK   40  A    between atoms: _89  and  _90
REMARK   41  A    between atoms: _93  and  _95
REMARK   42  A    between atoms: _95  and  _96
REMARK   43  A    between atoms: _98  and  _100
REMARK   44  A    between atoms: _100  and  _101
REMARK   45  A    between atoms: _100  and  _103
REMARK   46  A    between atoms: _103  and  _104
REMARK   47  A    between atoms: _106  and  _108
REMARK   48  A    between atoms: _108  and  _109
REMARK   49  A    between atoms: _108  and  _111
REMARK   50  A    between atoms: _111  and  _112
REMARK   51  A    between atoms: _114  and  _116
REMARK   52  A    between atoms: _116  and  _117
REMARK   53  A    between atoms: _116  and  _119
REMARK   54  A    between atoms: _119  and  _120
REMARK   55  A    between atoms: _125  and  _127
REMARK   56  A    between atoms: _127  and  _128
REMARK   57  A    between atoms: _127  and  _130
REMARK   58  A    between atoms: _130  and  _131
REMARK   59  A    between atoms: _136  and  _137
REMARK   60  A    between atoms: _139  and  _141
REMARK   61  A    between atoms: _141  and  _142
REMARK   62  A    between atoms: _141  and  _144
REMARK   63  A    between atoms: _148  and  _149
REMARK   64  A    between atoms: _154  and  _156
REMARK   65  A    between atoms: _156  and  _157
REMARK   66  A    between atoms: _156  and  _159
REMARK   67  A    between atoms: _159  and  _160
REMARK   68  A    between atoms: _165  and  _166
REMARK   69  A    between atoms: _168  and  _170
REMARK   70  A    between atoms: _170  and  _171
REMARK   71  A    between atoms: _170  and  _173
REMARK   72  A    between atoms: _173  and  _174
REMARK   73  A    between atoms: _177  and  _179
REMARK   74  A    between atoms: _179  and  _180
REMARK   75  A    between atoms: _179  and  _182
REMARK   76  A    between atoms: _182  and  _183
REMARK   77  A    between atoms: _183  and  _184
REMARK   78  A    between atoms: _189  and  _191
REMARK   79  A    between atoms: _191  and  _192
REMARK   80  A    between atoms: _194  and  _196
REMARK   81  A    between atoms: _196  and  _197
REMARK   82  A    between atoms: _196  and  _199
REMARK   83  A    between atoms: _199  and  _200
REMARK   84  A    between atoms: _200  and  _201
REMARK   85  A    between atoms: _201  and  _202
REMARK   86  A    between atoms: _202  and  _203
REMARK   87  A    between atoms: _207  and  _209
REMARK   88  A    between atoms: _209  and  _210
REMARK   89  A    between atoms: _209  and  _212
REMARK   90  A    between atoms: _212  and  _213
REMARK   91  A    between atoms: _223  and  _225
REMARK   92  A    between atoms: _225  and  _226
REMARK   93  A    between atoms: _225  and  _228
REMARK   94  A    between atoms: _228  and  _229
REMARK   95  A    between atoms: _232  and  _234
REMARK   96  A    between atoms: _234  and  _235
REMARK   97  A    between atoms: _234  and  _237
REMARK   98  A    between atoms: _237  and  _238
REMARK   99  A    between atoms: _238  and  _239
REMARK  100  A    between atoms: _239  and  _240
REMARK  101  A    between atoms: _240  and  _241
REMARK  102  A    between atoms: _245  and  _247
REMARK  103  A    between atoms: _247  and  _248
REMARK  104  A    between atoms: _247  and  _250
REMARK  105  A    between atoms: _250  and  _251
REMARK  106  A    between atoms: _257  and  _259
REMARK  107  A    between atoms: _259  and  _260
REMARK  108  A    between atoms: _259  and  _262
REMARK  109  A    between atoms: _262  and  _263
REMARK  110  A    between atoms: _269  and  _271
REMARK  111  A    between atoms: _271  and  _272
REMARK  112  A    between atoms: _271  and  _274
REMARK  113  A    between atoms: _274  and  _275
REMARK  114  A    between atoms: _278  and  _280
REMARK  115  A    between atoms: _280  and  _281
REMARK  116  A    between atoms: _280  and  _283
REMARK  117  A    between atoms: _283  and  _284
REMARK  118  A    between atoms: _286  and  _288
REMARK  119  A    between atoms: _288  and  _289
REMARK  120  A    between atoms: _288  and  _291
REMARK  121  A    between atoms: _291  and  _292
REMARK  122  A    between atoms: _302  and  _304
REMARK  123  A    between atoms: _304  and  _305
REMARK  124  A    between atoms: _307  and  _309
REMARK  125  A    between atoms: _309  and  _310
REMARK  126  A    between atoms: _309  and  _312
REMARK  127  A    between atoms: _312  and  _313
REMARK  128  A    between atoms: _316  and  _318
REMARK  129  A    between atoms: _318  and  _319
REMARK  130  A    between atoms: _318  and  _321
REMARK  131  A    between atoms: _321  and  _322
REMARK  132  A    between atoms: _325  and  _327
REMARK  133  A    between atoms: _327  and  _328
REMARK  134  A    between atoms: _330  and  _332
REMARK  135  A    between atoms: _332  and  _333
REMARK  136  A    between atoms: _332  and  _335
REMARK  137  A    between atoms: _335  and  _336
REMARK  138  A    between atoms: _339  and  _341
REMARK  139  A    between atoms: _341  and  _342
REMARK  140  A    between atoms: _345  and  _347
REMARK  141  A    between atoms: _347  and  _348
REMARK  142  A    between atoms: _347  and  _350
REMARK  143  A    between atoms: _350  and  _351
REMARK  144  A    between atoms: _354  and  _356
REMARK  145  A    between atoms: _356  and  _357
REMARK  146  A    between atoms: _360  and  _362
REMARK  147  A    between atoms: _362  and  _363
REMARK  148  A    between atoms: _362  and  _365
REMARK  149  A    between atoms: _365  and  _366
REMARK  150  A    between atoms: _366  and  _367
REMARK  151  A    between atoms: _367  and  _368
REMARK  152  A    between atoms: _377  and  _379
REMARK  153  A    between atoms: _379  and  _380
REMARK  154  A    between atoms: _379  and  _382
REMARK  155  A    between atoms: _382  and  _383
REMARK  156  A    between atoms: _386  and  _388
REMARK  157  A    between atoms: _388  and  _389
REMARK  158  A    between atoms: _388  and  _391
REMARK  159  A    between atoms: _391  and  _392
REMARK  160  A    between atoms: _397  and  _398
REMARK  161  A    between atoms: _400  and  _402
REMARK  162  A    between atoms: _402  and  _403
REMARK  163  A    between atoms: _402  and  _405
REMARK  164  A    between atoms: _405  and  _406
REMARK  165  A    between atoms: _411  and  _412
REMARK  166  A    between atoms: _414  and  _416
REMARK  167  A    between atoms: _416  and  _417
REMARK  168  A    between atoms: _416  and  _419
REMARK  169  A    between atoms: _419  and  _420
REMARK  170  A    between atoms: _420  and  _421
REMARK  171  A    between atoms: _421  and  _422
REMARK  172  A    between atoms: _422  and  _423
REMARK  173  A    between atoms: _427  and  _429
REMARK  174  A    between atoms: _429  and  _430
REMARK  175  A    between atoms: _429  and  _432
REMARK  176  A    between atoms: _432  and  _433
REMARK  177  A    between atoms: _436  and  _438
REMARK  178  A    between atoms: _438  and  _439
REMARK  179  A    between atoms: _438  and  _441
REMARK  180  A    between atoms: _444  and  _446
REMARK  181  A    between atoms: _446  and  _447
REMARK  182  A    between atoms: _446  and  _449
REMARK  183  A    between atoms: _449  and  _450
REMARK  184  A    between atoms: _453  and  _455
REMARK  185  A    between atoms: _455  and  _456
REMARK  186  A    between atoms: _455  and  _458
REMARK  187  A    between atoms: _458  and  _459
REMARK  188  A    between atoms: _461  and  _463
REMARK  189  A    between atoms: _463  and  _464
REMARK  190  A    between atoms: _466  and  _468
REMARK  191  A    between atoms: _468  and  _469
REMARK  192  A    between atoms: _468  and  _471
REMARK  193  A    between atoms: _471  and  _472
REMARK  194  A    between atoms: _475  and  _477
REMARK  195  A    between atoms: _477  and  _478
REMARK  196  A    between atoms: _477  and  _480
REMARK  197  A    between atoms: _480  and  _481
REMARK  198  A    between atoms: _484  and  _486
REMARK  199  A    between atoms: _486  and  _487
REMARK  200  A    between atoms: _486  and  _489
REMARK  201  A    between atoms: _489  and  _490
REMARK  202  A    between atoms: _495  and  _497
REMARK  203  A    between atoms: _497  and  _498
REMARK  204  A    between atoms: _497  and  _500
REMARK  205  A    between atoms: _500  and  _501
REMARK  206  A    between atoms: _501  and  _502
REMARK  207  A    between atoms: _502  and  _503
REMARK  208  A    between atoms: _512  and  _514
REMARK  209  A    between atoms: _514  and  _515
REMARK  210  A    between atoms: _514  and  _517
REMARK  211  A    between atoms: _517  and  _518
REMARK  212  A    between atoms: _518  and  _519
REMARK  213  A    between atoms: _519  and  _520
REMARK  214  A    between atoms: _529  and  _531
REMARK  215  A    between atoms: _531  and  _532
REMARK  216  A    between atoms: _531  and  _534
REMARK  217  A    between atoms: _534  and  _535
REMARK  218  A    between atoms: _537  and  _539
REMARK  219  A    between atoms: _539  and  _540
REMARK  220  A    between atoms: _539  and  _542
REMARK  221  A    between atoms: _542  and  _543
REMARK  222  A    between atoms: _543  and  _544
REMARK  223  A    between atoms: _549  and  _551
REMARK  224  A    between atoms: _551  and  _552
REMARK  225  A    between atoms: _551  and  _554
REMARK  226  A    between atoms: _554  and  _555
REMARK  227  A    between atoms: _557  and  _559
REMARK  228  A    between atoms: _559  and  _560
REMARK  229  A    between atoms: _559  and  _562
REMARK  230  A    between atoms: _562  and  _563
REMARK  231  A    between atoms: _565  and  _567
REMARK  232  A    between atoms: _567  and  _568
REMARK  233  A    between atoms: _567  and  _570
REMARK  234  A    between atoms: _570  and  _571
REMARK  235  A    between atoms: _574  and  _576
REMARK  236  A    between atoms: _576  and  _577
REMARK  237  A    between atoms: _576  and  _579
REMARK  238  A    between atoms: _579  and  _580
REMARK  239  A    between atoms: _583  and  _585
REMARK  240  A    between atoms: _585  and  _586
REMARK  241  A    between atoms: _585  and  _588
REMARK  242  A    between atoms: _591  and  _593
REMARK  243  A    between atoms: _593  and  _594
REMARK  244  A    between atoms: _596  and  _598
REMARK  245  A    between atoms: _598  and  _599
REMARK  246  A    between atoms: _602  and  _604
REMARK  247  A    between atoms: _604  and  _605
REMARK  248  A    between atoms: _604  and  _607
REMARK                            x       y       z     vdW  Elec       q    Type
REMARK                         _______ _______ _______ _____ _____    ______ ____
ROOT
ATOM      1  O   HOH     1      16.283  14.850  28.127  0.00  0.00    +0.000 OA
ENDROOT
TORSDOF 0
REMARK  Name = ../refined-set-2016/2qmg/2qmg_pocket.pdb
REMARK  248 active torsions:
REMARK  status: ('A' for Active; 'I' for Inactive)
REMARK    1  A    between atoms: _1  and  _3
REMARK    2  A    between atoms: _3  and  _4
REMARK    3  A    between atoms: _3  and  _6
REMARK    4  A    between atoms: _6  and  _7
REMARK    5  A    between atoms: _7  and  _8
REMARK    6  A    between atoms: _8  and  _9
REMARK    7  A    between atoms: _9  and  _10
REMARK    8  A    between atoms: _14  and  _16
REMARK    9  A    between atoms: _16  and  _17
REMARK   10  A    between atoms: _16  and  _19
REMARK   11  A    between atoms: _19  and  _20
REMARK   12  A    between atoms: _22  and  _24
REMARK   13  A    between atoms: _24  and  _25
REMARK   14  A    between atoms: _27  and  _29
REMARK   15  A    between atoms: _29  and  _30
REMARK   16  A    between atoms: _29  and  _32
REMARK   17  A    between atoms: _32  and  _33
REMARK   18  A    between atoms: _33  and  _34
REMARK   19  A    between atoms: _39  and  _41
REMARK   20  A    between atoms: _41  and  _42
REMARK   21  A    between atoms: _44  and  _46
REMARK   22  A    between atoms: _46  and  _47
REMARK   23  A    between atoms: _46  and  _49
REMARK   24  A    between atoms: _49  and  _50
REMARK   25  A    between atoms: _55  and  _56
REMARK   26  A    between atoms: _58  and  _60
REMARK   27  A    between atoms: _60  and  _61
REMARK   28  A    between atoms: _60  and  _63
REMARK   29  A    between atoms: _63  and  _64
REMARK   30  A    between atoms: _67  and  _69
REMARK   31  A    between atoms: _69  and  _70
REMARK   32  A    between atoms: _69  and  _72
REMARK   33  A    between atoms: _75  and  _77
REMARK   34  A    between atoms: _77  and  _78
REMARK   35  A    between atoms: _77  and  _80
REMARK   36  A    between atoms: _80  and  _81
REMARK   37  A    between atoms: _84  and  _86
REMARK   38  A    between atoms: _86  and  _87
REMARK   39  A    between atoms: _86  and  _89
REMARK   40  A    between atoms: _89  and  _90
REMARK   41  A    between atoms: _93  and  _95
REMARK   42  A    between atoms: _95  and  _96
REMARK   43  A    between atoms: _98  and  _100
REMARK   44  A    between atoms: _100  and  _101
REMARK   45  A    between atoms: _100  and  _103
REMARK   46  A    between atoms: _103  and  _104
REMARK   47  A    between atoms: _106  and  _108
REMARK   48  A    between atoms: _108  and  _109
REMARK   49  A    between atoms: _108  and  _111
REMARK   50  A    between atoms: _111  and  _112
REMARK   51  A    between atoms: _114  and  _116
REMARK   52  A    between atoms: _116  and  _117
REMARK   53  A    between atoms: _116  and  _119
REMARK   54  A    between atoms: _119  and  _120
REMARK   55  A    between atoms: _125  and  _127
REMARK   56  A    between atoms: _127  and  _128
REMARK   57  A    between atoms: _127  and  _130
REMARK   58  A    between atoms: _130  and  _131
REMARK   59  A    between atoms: _136  and  _137
REMARK   60  A    between atoms: _139  and  _141
REMARK   61  A    between atoms: _141  and  _142
REMARK   62  A    between atoms: _141  and  _144
REMARK   63  A    between atoms: _148  and  _149
REMARK   64  A    between atoms: _154  and  _156
REMARK   65  A    between atoms: _156  and  _157
REMARK   66  A    between atoms: _156  and  _159
REMARK   67  A    between atoms: _159  and  _160
REMARK   68  A    between atoms: _165  and  _166
REMARK   69  A    between atoms: _168  and  _170
REMARK   70  A    between atoms: _170  and  _171
REMARK   71  A    between atoms: _170  and  _173
REMARK   72  A    between atoms: _173  and  _174
REMARK   73  A    between atoms: _177  and  _179
REMARK   74  A    between atoms: _179  and  _180
REMARK   75  A    between atoms: _179  and  _182
REMARK   76  A    between atoms: _182  and  _183
REMARK   77  A    between atoms: _183  and  _184
REMARK   78  A    between atoms: _189  and  _191
REMARK   79  A    between atoms: _191  and  _192
REMARK   80  A    between atoms: _194  and  _196
REMARK   81  A    between atoms: _196  and  _197
REMARK   82  A    between atoms: _196  and  _199
REMARK   83  A    between atoms: _199  and  _200
REMARK   84  A    between atoms: _200  and  _201
REMARK   85  A    between atoms: _201  and  _202
REMARK   86  A    between atoms: _202  and  _203
REMARK   87  A    between atoms: _207  and  _209
REMARK   88  A    between atoms: _209  and  _210
REMARK   89  A    between atoms: _209  and  _212
REMARK   90  A    between atoms: _212  and  _213
REMARK   91  A    between atoms: _223  and  _225
REMARK   92  A    between atoms: _225  and  _226
REMARK   93  A    between atoms: _225  and  _228
REMARK   94  A    between atoms: _228  and  _229
REMARK   95  A    between atoms: _232  and  _234
REMARK   96  A    between atoms: _234  and  _235
REMARK   97  A    between atoms: _234  and  _237
REMARK   98  A    between atoms: _237  and  _238
REMARK   99  A    between atoms: _238  and  _239
REMARK  100  A    between atoms: _239  and  _240
REMARK  101  A    between atoms: _240  and  _241
REMARK  102  A    between atoms: _245  and  _247
REMARK  103  A    between atoms: _247  and  _248
REMARK  104  A    between atoms: _247  and  _250
REMARK  105  A    between atoms: _250  and  _251
REMARK  106  A    between atoms: _257  and  _259
REMARK  107  A    between atoms: _259  and  _260
REMARK  108  A    between atoms: _259  and  _262
REMARK  109  A    between atoms: _262  and  _263
REMARK  110  A    between atoms: _269  and  _271
REMARK  111  A    between atoms: _271  and  _272
REMARK  112  A    between atoms: _271  and  _274
REMARK  113  A    between atoms: _274  and  _275
REMARK  114  A    between atoms: _278  and  _280
REMARK  115  A    between atoms: _280  and  _281
REMARK  116  A    between atoms: _280  and  _283
REMARK  117  A    between atoms: _283  and  _284
REMARK  118  A    between atoms: _286  and  _288
REMARK  119  A    between atoms: _288  and  _289
REMARK  120  A    between atoms: _288  and  _291
REMARK  121  A    between atoms: _291  and  _292
REMARK  122  A    between atoms: _302  and  _304
REMARK  123  A    between atoms: _304  and  _305
REMARK  124  A    between atoms: _307  and  _309
REMARK  125  A    between atoms: _309  and  _310
REMARK  126  A    between atoms: _309  and  _312
REMARK  127  A    between atoms: _312  and  _313
REMARK  128  A    between atoms: _316  and  _318
REMARK  129  A    between atoms: _318  and  _319
REMARK  130  A    between atoms: _318  and  _321
REMARK  131  A    between atoms: _321  and  _322
REMARK  132  A    between atoms: _325  and  _327
REMARK  133  A    between atoms: _327  and  _328
REMARK  134  A    between atoms: _330  and  _332
REMARK  135  A    between atoms: _332  and  _333
REMARK  136  A    between atoms: _332  and  _335
REMARK  137  A    between atoms: _335  and  _336
REMARK  138  A    between atoms: _339  and  _341
REMARK  139  A    between atoms: _341  and  _342
REMARK  140  A    between atoms: _345  and  _347
REMARK  141  A    between atoms: _347  and  _348
REMARK  142  A    between atoms: _347  and  _350
REMARK  143  A    between atoms: _350  and  _351
REMARK  144  A    between atoms: _354  and  _356
REMARK  145  A    between atoms: _356  and  _357
REMARK  146  A    between atoms: _360  and  _362
REMARK  147  A    between atoms: _362  and  _363
REMARK  148  A    between atoms: _362  and  _365
REMARK  149  A    between atoms: _365  and  _366
REMARK  150  A    between atoms: _366  and  _367
REMARK  151  A    between atoms: _367  and  _368
REMARK  152  A    between atoms: _377  and  _379
REMARK  153  A    between atoms: _379  and  _380
REMARK  154  A    between atoms: _379  and  _382
REMARK  155  A    between atoms: _382  and  _383
REMARK  156  A    between atoms: _386  and  _388
REMARK  157  A    between atoms: _388  and  _389
REMARK  158  A    between atoms: _388  and  _391
REMARK  159  A    between atoms: _391  and  _392
REMARK  160  A    between atoms: _397  and  _398
REMARK  161  A    between atoms: _400  and  _402
REMARK  162  A    between atoms: _402  and  _403
REMARK  163  A    between atoms: _402  and  _405
REMARK  164  A    between atoms: _405  and  _406
REMARK  165  A    between atoms: _411  and  _412
REMARK  166  A    between atoms: _414  and  _416
REMARK  167  A    between atoms: _416  and  _417
REMARK  168  A    between atoms: _416  and  _419
REMARK  169  A    between atoms: _419  and  _420
REMARK  170  A    between atoms: _420  and  _421
REMARK  171  A    between atoms: _421  and  _422
REMARK  172  A    between atoms: _422  and  _423
REMARK  173  A    between atoms: _427  and  _429
REMARK  174  A    between atoms: _429  and  _430
REMARK  175  A    between atoms: _429  and  _432
REMARK  176  A    between atoms: _432  and  _433
REMARK  177  A    between atoms: _436  and  _438
REMARK  178  A    between atoms: _438  and  _439
REMARK  179  A    between atoms: _438  and  _441
REMARK  180  A    between atoms: _444  and  _446
REMARK  181  A    between atoms: _446  and  _447
REMARK  182  A    between atoms: _446  and  _449
REMARK  183  A    between atoms: _449  and  _450
REMARK  184  A    between atoms: _453  and  _455
REMARK  185  A    between atoms: _455  and  _456
REMARK  186  A    between atoms: _455  and  _458
REMARK  187  A    between atoms: _458  and  _459
REMARK  188  A    between atoms: _461  and  _463
REMARK  189  A    between atoms: _463  and  _464
REMARK  190  A    between atoms: _466  and  _468
REMARK  191  A    between atoms: _468  and  _469
REMARK  192  A    between atoms: _468  and  _471
REMARK  193  A    between atoms: _471  and  _472
REMARK  194  A    between atoms: _475  and  _477
REMARK  195  A    between atoms: _477  and  _478
REMARK  196  A    between atoms: _477  and  _480
REMARK  197  A    between atoms: _480  and  _481
REMARK  198  A    between atoms: _484  and  _486
REMARK  199  A    between atoms: _486  and  _487
REMARK  200  A    between atoms: _486  and  _489
REMARK  201  A    between atoms: _489  and  _490
REMARK  202  A    between atoms: _495  and  _497
REMARK  203  A    between atoms: _497  and  _498
REMARK  204  A    between atoms: _497  and  _500
REMARK  205  A    between atoms: _500  and  _501
REMARK  206  A    between atoms: _501  and  _502
REMARK  207  A    between atoms: _502  and  _503
REMARK  208  A    between atoms: _512  and  _514
REMARK  209  A    between atoms: _514  and  _515
REMARK  210  A    between atoms: _514  and  _517
REMARK  211  A    between atoms: _517  and  _518
REMARK  212  A    between atoms: _518  and  _519
REMARK  213  A    between atoms: _519  and  _520
REMARK  214  A    between atoms: _529  and  _531
REMARK  215  A    between atoms: _531  and  _532
REMARK  216  A    between atoms: _531  and  _534
REMARK  217  A    between atoms: _534  and  _535
REMARK  218  A    between atoms: _537  and  _539
REMARK  219  A    between atoms: _539  and  _540
REMARK  220  A    between atoms: _539  and  _542
REMARK  221  A    between atoms: _542  and  _543
REMARK  222  A    between atoms: _543  and  _544
REMARK  223  A    between atoms: _549  and  _551
REMARK  224  A    between atoms: _551  and  _552
REMARK  225  A    between atoms: _551  and  _554
REMARK  226  A    between atoms: _554  and  _555
REMARK  227  A    between atoms: _557  and  _559
REMARK  228  A    between atoms: _559  and  _560
REMARK  229  A    between atoms: _559  and  _562
REMARK  230  A    between atoms: _562  and  _563
REMARK  231  A    between atoms: _565  and  _567
REMARK  232  A    between atoms: _567  and  _568
REMARK  233  A    between atoms: _567  and  _570
REMARK  234  A    between atoms: _570  and  _571
REMARK  235  A    between atoms: _574  and  _576
REMARK  236  A    between atoms: _576  and  _577
REMARK  237  A    between atoms: _576  and  _579
REMARK  238  A    between atoms: _579  and  _580
REMARK  239  A    between atoms: _583  and  _585
REMARK  240  A    between atoms: _585  and  _586
REMARK  241  A    between atoms: _585  and  _588
REMARK  242  A    between atoms: _591  and  _593
REMARK  243  A    between atoms: _593  and  _594
REMARK  244  A    between atoms: _596  and  _598
REMARK  245  A    between atoms: _598  and  _599
REMARK  246  A    between atoms: _602  and  _604
REMARK  247  A    between atoms: _604  and  _605
REMARK  248  A    between atoms: _604  and  _607
REMARK                            x       y       z     vdW  Elec       q    Type
REMARK                         _______ _______ _______ _____ _____    ______ ____
ROOT
ATOM      1  O   HOH     1      28.262  16.525  13.659  0.00  0.00    +0.000 OA
ENDROOT
TORSDOF 0
REMARK  Name = ../refined-set-2016/2qmg/2qmg_pocket.pdb
REMARK  248 active torsions:
REMARK  status: ('A' for Active; 'I' for Inactive)
REMARK    1  A    between atoms: _1  and  _3
REMARK    2  A    between atoms: _3  and  _4
REMARK    3  A    between atoms: _3  and  _6
REMARK    4  A    between atoms: _6  and  _7
REMARK    5  A    between atoms: _7  and  _8
REMARK    6  A    between atoms: _8  and  _9
REMARK    7  A    between atoms: _9  and  _10
REMARK    8  A    between atoms: _14  and  _16
REMARK    9  A    between atoms: _16  and  _17
REMARK   10  A    between atoms: _16  and  _19
REMARK   11  A    between atoms: _19  and  _20
REMARK   12  A    between atoms: _22  and  _24
REMARK   13  A    between atoms: _24  and  _25
REMARK   14  A    between atoms: _27  and  _29
REMARK   15  A    between atoms: _29  and  _30
REMARK   16  A    between atoms: _29  and  _32
REMARK   17  A    between atoms: _32  and  _33
REMARK   18  A    between atoms: _33  and  _34
REMARK   19  A    between atoms: _39  and  _41
REMARK   20  A    between atoms: _41  and  _42
REMARK   21  A    between atoms: _44  and  _46
REMARK   22  A    between atoms: _46  and  _47
REMARK   23  A    between atoms: _46  and  _49
REMARK   24  A    between atoms: _49  and  _50
REMARK   25  A    between atoms: _55  and  _56
REMARK   26  A    between atoms: _58  and  _60
REMARK   27  A    between atoms: _60  and  _61
REMARK   28  A    between atoms: _60  and  _63
REMARK   29  A    between atoms: _63  and  _64
REMARK   30  A    between atoms: _67  and  _69
REMARK   31  A    between atoms: _69  and  _70
REMARK   32  A    between atoms: _69  and  _72
REMARK   33  A    between atoms: _75  and  _77
REMARK   34  A    between atoms: _77  and  _78
REMARK   35  A    between atoms: _77  and  _80
REMARK   36  A    between atoms: _80  and  _81
REMARK   37  A    between atoms: _84  and  _86
REMARK   38  A    between atoms: _86  and  _87
REMARK   39  A    between atoms: _86  and  _89
REMARK   40  A    between atoms: _89  and  _90
REMARK   41  A    between atoms: _93  and  _95
REMARK   42  A    between atoms: _95  and  _96
REMARK   43  A    between atoms: _98  and  _100
REMARK   44  A    between atoms: _100  and  _101
REMARK   45  A    between atoms: _100  and  _103
REMARK   46  A    between atoms: _103  and  _104
REMARK   47  A    between atoms: _106  and  _108
REMARK   48  A    between atoms: _108  and  _109
REMARK   49  A    between atoms: _108  and  _111
REMARK   50  A    between atoms: _111  and  _112
REMARK   51  A    between atoms: _114  and  _116
REMARK   52  A    between atoms: _116  and  _117
REMARK   53  A    between atoms: _116  and  _119
REMARK   54  A    between atoms: _119  and  _120
REMARK   55  A    between atoms: _125  and  _127
REMARK   56  A    between atoms: _127  and  _128
REMARK   57  A    between atoms: _127  and  _130
REMARK   58  A    between atoms: _130  and  _131
REMARK   59  A    between atoms: _136  and  _137
REMARK   60  A    between atoms: _139  and  _141
REMARK   61  A    between atoms: _141  and  _142
REMARK   62  A    between atoms: _141  and  _144
REMARK   63  A    between atoms: _148  and  _149
REMARK   64  A    between atoms: _154  and  _156
REMARK   65  A    between atoms: _156  and  _157
REMARK   66  A    between atoms: _156  and  _159
REMARK   67  A    between atoms: _159  and  _160
REMARK   68  A    between atoms: _165  and  _166
REMARK   69  A    between atoms: _168  and  _170
REMARK   70  A    between atoms: _170  and  _171
REMARK   71  A    between atoms: _170  and  _173
REMARK   72  A    between atoms: _173  and  _174
REMARK   73  A    between atoms: _177  and  _179
REMARK   74  A    between atoms: _179  and  _180
REMARK   75  A    between atoms: _179  and  _182
REMARK   76  A    between atoms: _182  and  _183
REMARK   77  A    between atoms: _183  and  _184
REMARK   78  A    between atoms: _189  and  _191
REMARK   79  A    between atoms: _191  and  _192
REMARK   80  A    between atoms: _194  and  _196
REMARK   81  A    between atoms: _196  and  _197
REMARK   82  A    between atoms: _196  and  _199
REMARK   83  A    between atoms: _199  and  _200
REMARK   84  A    between atoms: _200  and  _201
REMARK   85  A    between atoms: _201  and  _202
REMARK   86  A    between atoms: _202  and  _203
REMARK   87  A    between atoms: _207  and  _209
REMARK   88  A    between atoms: _209  and  _210
REMARK   89  A    between atoms: _209  and  _212
REMARK   90  A    between atoms: _212  and  _213
REMARK   91  A    between atoms: _223  and  _225
REMARK   92  A    between atoms: _225  and  _226
REMARK   93  A    between atoms: _225  and  _228
REMARK   94  A    between atoms: _228  and  _229
REMARK   95  A    between atoms: _232  and  _234
REMARK   96  A    between atoms: _234  and  _235
REMARK   97  A    between atoms: _234  and  _237
REMARK   98  A    between atoms: _237  and  _238
REMARK   99  A    between atoms: _238  and  _239
REMARK  100  A    between atoms: _239  and  _240
REMARK  101  A    between atoms: _240  and  _241
REMARK  102  A    between atoms: _245  and  _247
REMARK  103  A    between atoms: _247  and  _248
REMARK  104  A    between atoms: _247  and  _250
REMARK  105  A    between atoms: _250  and  _251
REMARK  106  A    between atoms: _257  and  _259
REMARK  107  A    between atoms: _259  and  _260
REMARK  108  A    between atoms: _259  and  _262
REMARK  109  A    between atoms: _262  and  _263
REMARK  110  A    between atoms: _269  and  _271
REMARK  111  A    between atoms: _271  and  _272
REMARK  112  A    between atoms: _271  and  _274
REMARK  113  A    between atoms: _274  and  _275
REMARK  114  A    between atoms: _278  and  _280
REMARK  115  A    between atoms: _280  and  _281
REMARK  116  A    between atoms: _280  and  _283
REMARK  117  A    between atoms: _283  and  _284
REMARK  118  A    between atoms: _286  and  _288
REMARK  119  A    between atoms: _288  and  _289
REMARK  120  A    between atoms: _288  and  _291
REMARK  121  A    between atoms: _291  and  _292
REMARK  122  A    between atoms: _302  and  _304
REMARK  123  A    between atoms: _304  and  _305
REMARK  124  A    between atoms: _307  and  _309
REMARK  125  A    between atoms: _309  and  _310
REMARK  126  A    between atoms: _309  and  _312
REMARK  127  A    between atoms: _312  and  _313
REMARK  128  A    between atoms: _316  and  _318
REMARK  129  A    between atoms: _318  and  _319
REMARK  130  A    between atoms: _318  and  _321
REMARK  131  A    between atoms: _321  and  _322
REMARK  132  A    between atoms: _325  and  _327
REMARK  133  A    between atoms: _327  and  _328
REMARK  134  A    between atoms: _330  and  _332
REMARK  135  A    between atoms: _332  and  _333
REMARK  136  A    between atoms: _332  and  _335
REMARK  137  A    between atoms: _335  and  _336
REMARK  138  A    between atoms: _339  and  _341
REMARK  139  A    between atoms: _341  and  _342
REMARK  140  A    between atoms: _345  and  _347
REMARK  141  A    between atoms: _347  and  _348
REMARK  142  A    between atoms: _347  and  _350
REMARK  143  A    between atoms: _350  and  _351
REMARK  144  A    between atoms: _354  and  _356
REMARK  145  A    between atoms: _356  and  _357
REMARK  146  A    between atoms: _360  and  _362
REMARK  147  A    between atoms: _362  and  _363
REMARK  148  A    between atoms: _362  and  _365
REMARK  149  A    between atoms: _365  and  _366
REMARK  150  A    between atoms: _366  and  _367
REMARK  151  A    between atoms: _367  and  _368
REMARK  152  A    between atoms: _377  and  _379
REMARK  153  A    between atoms: _379  and  _380
REMARK  154  A    between atoms: _379  and  _382
REMARK  155  A    between atoms: _382  and  _383
REMARK  156  A    between atoms: _386  and  _388
REMARK  157  A    between atoms: _388  and  _389
REMARK  158  A    between atoms: _388  and  _391
REMARK  159  A    between atoms: _391  and  _392
REMARK  160  A    between atoms: _397  and  _398
REMARK  161  A    between atoms: _400  and  _402
REMARK  162  A    between atoms: _402  and  _403
REMARK  163  A    between atoms: _402  and  _405
REMARK  164  A    between atoms: _405  and  _406
REMARK  165  A    between atoms: _411  and  _412
REMARK  166  A    between atoms: _414  and  _416
REMARK  167  A    between atoms: _416  and  _417
REMARK  168  A    between atoms: _416  and  _419
REMARK  169  A    between atoms: _419  and  _420
REMARK  170  A    between atoms: _420  and  _421
REMARK  171  A    between atoms: _421  and  _422
REMARK  172  A    between atoms: _422  and  _423
REMARK  173  A    between atoms: _427  and  _429
REMARK  174  A    between atoms: _429  and  _430
REMARK  175  A    between atoms: _429  and  _432
REMARK  176  A    between atoms: _432  and  _433
REMARK  177  A    between atoms: _436  and  _438
REMARK  178  A    between atoms: _438  and  _439
REMARK  179  A    between atoms: _438  and  _441
REMARK  180  A    between atoms: _444  and  _446
REMARK  181  A    between atoms: _446  and  _447
REMARK  182  A    between atoms: _446  and  _449
REMARK  183  A    between atoms: _449  and  _450
REMARK  184  A    between atoms: _453  and  _455
REMARK  185  A    between atoms: _455  and  _456
REMARK  186  A    between atoms: _455  and  _458
REMARK  187  A    between atoms: _458  and  _459
REMARK  188  A    between atoms: _461  and  _463
REMARK  189  A    between atoms: _463  and  _464
REMARK  190  A    between atoms: _466  and  _468
REMARK  191  A    between atoms: _468  and  _469
REMARK  192  A    between atoms: _468  and  _471
REMARK  193  A    between atoms: _471  and  _472
REMARK  194  A    between atoms: _475  and  _477
REMARK  195  A    between atoms: _477  and  _478
REMARK  196  A    between atoms: _477  and  _480
REMARK  197  A    between atoms: _480  and  _481
REMARK  198  A    between atoms: _484  and  _486
REMARK  199  A    between atoms: _486  and  _487
REMARK  200  A    between atoms: _486  and  _489
REMARK  201  A    between atoms: _489  and  _490
REMARK  202  A    between atoms: _495  and  _497
REMARK  203  A    between atoms: _497  and  _498
REMARK  204  A    between atoms: _497  and  _500
REMARK  205  A    between atoms: _500  and  _501
REMARK  206  A    between atoms: _501  and  _502
REMARK  207  A    between atoms: _502  and  _503
REMARK  208  A    between atoms: _512  and  _514
REMARK  209  A    between atoms: _514  and  _515
REMARK  210  A    between atoms: _514  and  _517
REMARK  211  A    between atoms: _517  and  _518
REMARK  212  A    between atoms: _518  and  _519
REMARK  213  A    between atoms: _519  and  _520
REMARK  214  A    between atoms: _529  and  _531
REMARK  215  A    between atoms: _531  and  _532
REMARK  216  A    between atoms: _531  and  _534
REMARK  217  A    between atoms: _534  and  _535
REMARK  218  A    between atoms: _537  and  _539
REMARK  219  A    between atoms: _539  and  _540
REMARK  220  A    between atoms: _539  and  _542
REMARK  221  A    between atoms: _542  and  _543
REMARK  222  A    between atoms: _543  and  _544
REMARK  223  A    between atoms: _549  and  _551
REMARK  224  A    between atoms: _551  and  _552
REMARK  225  A    between atoms: _551  and  _554
REMARK  226  A    between atoms: _554  and  _555
REMARK  227  A    between atoms: _557  and  _559
REMARK  228  A    between atoms: _559  and  _560
REMARK  229  A    between atoms: _559  and  _562
REMARK  230  A    between atoms: _562  and  _563
REMARK  231  A    between atoms: _565  and  _567
REMARK  232  A    between atoms: _567  and  _568
REMARK  233  A    between atoms: _567  and  _570
REMARK  234  A    between atoms: _570  and  _571
REMARK  235  A    between atoms: _574  and  _576
REMARK  236  A    between atoms: _576  and  _577
REMARK  237  A    between atoms: _576  and  _579
REMARK  238  A    between atoms: _579  and  _580
REMARK  239  A    between atoms: _583  and  _585
REMARK  240  A    between atoms: _585  and  _586
REMARK  241  A    between atoms: _585  and  _588
REMARK  242  A    between atoms: _591  and  _593
REMARK  243  A    between atoms: _593  and  _594
REMARK  244  A    between atoms: _596  and  _598
REMARK  245  A    between atoms: _598  and  _599
REMARK  246  A    between atoms: _602  and  _604
REMARK  247  A    between atoms: _604  and  _605
REMARK  248  A    between atoms: _604  and  _607
REMARK                            x       y       z     vdW  Elec       q    Type
REMARK                         _______ _______ _______ _____ _____    ______ ____
ROOT
ATOM      1  O   HOH     1      25.267  15.270  19.113  0.00  0.00    +0.000 OA
ENDROOT
TORSDOF 0
REMARK  Name = ../refined-set-2016/2qmg/2qmg_pocket.pdb
REMARK  248 active torsions:
REMARK  status: ('A' for Active; 'I' for Inactive)
REMARK    1  A    between atoms: _1  and  _3
REMARK    2  A    between atoms: _3  and  _4
REMARK    3  A    between atoms: _3  and  _6
REMARK    4  A    between atoms: _6  and  _7
REMARK    5  A    between atoms: _7  and  _8
REMARK    6  A    between atoms: _8  and  _9
REMARK    7  A    between atoms: _9  and  _10
REMARK    8  A    between atoms: _14  and  _16
REMARK    9  A    between atoms: _16  and  _17
REMARK   10  A    between atoms: _16  and  _19
REMARK   11  A    between atoms: _19  and  _20
REMARK   12  A    between atoms: _22  and  _24
REMARK   13  A    between atoms: _24  and  _25
REMARK   14  A    between atoms: _27  and  _29
REMARK   15  A    between atoms: _29  and  _30
REMARK   16  A    between atoms: _29  and  _32
REMARK   17  A    between atoms: _32  and  _33
REMARK   18  A    between atoms: _33  and  _34
REMARK   19  A    between atoms: _39  and  _41
REMARK   20  A    between atoms: _41  and  _42
REMARK   21  A    between atoms: _44  and  _46
REMARK   22  A    between atoms: _46  and  _47
REMARK   23  A    between atoms: _46  and  _49
REMARK   24  A    between atoms: _49  and  _50
REMARK   25  A    between atoms: _55  and  _56
REMARK   26  A    between atoms: _58  and  _60
REMARK   27  A    between atoms: _60  and  _61
REMARK   28  A    between atoms: _60  and  _63
REMARK   29  A    between atoms: _63  and  _64
REMARK   30  A    between atoms: _67  and  _69
REMARK   31  A    between atoms: _69  and  _70
REMARK   32  A    between atoms: _69  and  _72
REMARK   33  A    between atoms: _75  and  _77
REMARK   34  A    between atoms: _77  and  _78
REMARK   35  A    between atoms: _77  and  _80
REMARK   36  A    between atoms: _80  and  _81
REMARK   37  A    between atoms: _84  and  _86
REMARK   38  A    between atoms: _86  and  _87
REMARK   39  A    between atoms: _86  and  _89
REMARK   40  A    between atoms: _89  and  _90
REMARK   41  A    between atoms: _93  and  _95
REMARK   42  A    between atoms: _95  and  _96
REMARK   43  A    between atoms: _98  and  _100
REMARK   44  A    between atoms: _100  and  _101
REMARK   45  A    between atoms: _100  and  _103
REMARK   46  A    between atoms: _103  and  _104
REMARK   47  A    between atoms: _106  and  _108
REMARK   48  A    between atoms: _108  and  _109
REMARK   49  A    between atoms: _108  and  _111
REMARK   50  A    between atoms: _111  and  _112
REMARK   51  A    between atoms: _114  and  _116
REMARK   52  A    between atoms: _116  and  _117
REMARK   53  A    between atoms: _116  and  _119
REMARK   54  A    between atoms: _119  and  _120
REMARK   55  A    between atoms: _125  and  _127
REMARK   56  A    between atoms: _127  and  _128
REMARK   57  A    between atoms: _127  and  _130
REMARK   58  A    between atoms: _130  and  _131
REMARK   59  A    between atoms: _136  and  _137
REMARK   60  A    between atoms: _139  and  _141
REMARK   61  A    between atoms: _141  and  _142
REMARK   62  A    between atoms: _141  and  _144
REMARK   63  A    between atoms: _148  and  _149
REMARK   64  A    between atoms: _154  and  _156
REMARK   65  A    between atoms: _156  and  _157
REMARK   66  A    between atoms: _156  and  _159
REMARK   67  A    between atoms: _159  and  _160
REMARK   68  A    between atoms: _165  and  _166
REMARK   69  A    between atoms: _168  and  _170
REMARK   70  A    between atoms: _170  and  _171
REMARK   71  A    between atoms: _170  and  _173
REMARK   72  A    between atoms: _173  and  _174
REMARK   73  A    between atoms: _177  and  _179
REMARK   74  A    between atoms: _179  and  _180
REMARK   75  A    between atoms: _179  and  _182
REMARK   76  A    between atoms: _182  and  _183
REMARK   77  A    between atoms: _183  and  _184
REMARK   78  A    between atoms: _189  and  _191
REMARK   79  A    between atoms: _191  and  _192
REMARK   80  A    between atoms: _194  and  _196
REMARK   81  A    between atoms: _196  and  _197
REMARK   82  A    between atoms: _196  and  _199
REMARK   83  A    between atoms: _199  and  _200
REMARK   84  A    between atoms: _200  and  _201
REMARK   85  A    between atoms: _201  and  _202
REMARK   86  A    between atoms: _202  and  _203
REMARK   87  A    between atoms: _207  and  _209
REMARK   88  A    between atoms: _209  and  _210
REMARK   89  A    between atoms: _209  and  _212
REMARK   90  A    between atoms: _212  and  _213
REMARK   91  A    between atoms: _223  and  _225
REMARK   92  A    between atoms: _225  and  _226
REMARK   93  A    between atoms: _225  and  _228
REMARK   94  A    between atoms: _228  and  _229
REMARK   95  A    between atoms: _232  and  _234
REMARK   96  A    between atoms: _234  and  _235
REMARK   97  A    between atoms: _234  and  _237
REMARK   98  A    between atoms: _237  and  _238
REMARK   99  A    between atoms: _238  and  _239
REMARK  100  A    between atoms: _239  and  _240
REMARK  101  A    between atoms: _240  and  _241
REMARK  102  A    between atoms: _245  and  _247
REMARK  103  A    between atoms: _247  and  _248
REMARK  104  A    between atoms: _247  and  _250
REMARK  105  A    between atoms: _250  and  _251
REMARK  106  A    between atoms: _257  and  _259
REMARK  107  A    between atoms: _259  and  _260
REMARK  108  A    between atoms: _259  and  _262
REMARK  109  A    between atoms: _262  and  _263
REMARK  110  A    between atoms: _269  and  _271
REMARK  111  A    between atoms: _271  and  _272
REMARK  112  A    between atoms: _271  and  _274
REMARK  113  A    between atoms: _274  and  _275
REMARK  114  A    between atoms: _278  and  _280
REMARK  115  A    between atoms: _280  and  _281
REMARK  116  A    between atoms: _280  and  _283
REMARK  117  A    between atoms: _283  and  _284
REMARK  118  A    between atoms: _286  and  _288
REMARK  119  A    between atoms: _288  and  _289
REMARK  120  A    between atoms: _288  and  _291
REMARK  121  A    between atoms: _291  and  _292
REMARK  122  A    between atoms: _302  and  _304
REMARK  123  A    between atoms: _304  and  _305
REMARK  124  A    between atoms: _307  and  _309
REMARK  125  A    between atoms: _309  and  _310
REMARK  126  A    between atoms: _309  and  _312
REMARK  127  A    between atoms: _312  and  _313
REMARK  128  A    between atoms: _316  and  _318
REMARK  129  A    between atoms: _318  and  _319
REMARK  130  A    between atoms: _318  and  _321
REMARK  131  A    between atoms: _321  and  _322
REMARK  132  A    between atoms: _325  and  _327
REMARK  133  A    between atoms: _327  and  _328
REMARK  134  A    between atoms: _330  and  _332
REMARK  135  A    between atoms: _332  and  _333
REMARK  136  A    between atoms: _332  and  _335
REMARK  137  A    between atoms: _335  and  _336
REMARK  138  A    between atoms: _339  and  _341
REMARK  139  A    between atoms: _341  and  _342
REMARK  140  A    between atoms: _345  and  _347
REMARK  141  A    between atoms: _347  and  _348
REMARK  142  A    between atoms: _347  and  _350
REMARK  143  A    between atoms: _350  and  _351
REMARK  144  A    between atoms: _354  and  _356
REMARK  145  A    between atoms: _356  and  _357
REMARK  146  A    between atoms: _360  and  _362
REMARK  147  A    between atoms: _362  and  _363
REMARK  148  A    between atoms: _362  and  _365
REMARK  149  A    between atoms: _365  and  _366
REMARK  150  A    between atoms: _366  and  _367
REMARK  151  A    between atoms: _367  and  _368
REMARK  152  A    between atoms: _377  and  _379
REMARK  153  A    between atoms: _379  and  _380
REMARK  154  A    between atoms: _379  and  _382
REMARK  155  A    between atoms: _382  and  _383
REMARK  156  A    between atoms: _386  and  _388
REMARK  157  A    between atoms: _388  and  _389
REMARK  158  A    between atoms: _388  and  _391
REMARK  159  A    between atoms: _391  and  _392
REMARK  160  A    between atoms: _397  and  _398
REMARK  161  A    between atoms: _400  and  _402
REMARK  162  A    between atoms: _402  and  _403
REMARK  163  A    between atoms: _402  and  _405
REMARK  164  A    between atoms: _405  and  _406
REMARK  165  A    between atoms: _411  and  _412
REMARK  166  A    between atoms: _414  and  _416
REMARK  167  A    between atoms: _416  and  _417
REMARK  168  A    between atoms: _416  and  _419
REMARK  169  A    between atoms: _419  and  _420
REMARK  170  A    between atoms: _420  and  _421
REMARK  171  A    between atoms: _421  and  _422
REMARK  172  A    between atoms: _422  and  _423
REMARK  173  A    between atoms: _427  and  _429
REMARK  174  A    between atoms: _429  and  _430
REMARK  175  A    between atoms: _429  and  _432
REMARK  176  A    between atoms: _432  and  _433
REMARK  177  A    between atoms: _436  and  _438
REMARK  178  A    between atoms: _438  and  _439
REMARK  179  A    between atoms: _438  and  _441
REMARK  180  A    between atoms: _444  and  _446
REMARK  181  A    between atoms: _446  and  _447
REMARK  182  A    between atoms: _446  and  _449
REMARK  183  A    between atoms: _449  and  _450
REMARK  184  A    between atoms: _453  and  _455
REMARK  185  A    between atoms: _455  and  _456
REMARK  186  A    between atoms: _455  and  _458
REMARK  187  A    between atoms: _458  and  _459
REMARK  188  A    between atoms: _461  and  _463
REMARK  189  A    between atoms: _463  and  _464
REMARK  190  A    between atoms: _466  and  _468
REMARK  191  A    between atoms: _468  and  _469
REMARK  192  A    between atoms: _468  and  _471
REMARK  193  A    between atoms: _471  and  _472
REMARK  194  A    between atoms: _475  and  _477
REMARK  195  A    between atoms: _477  and  _478
REMARK  196  A    between atoms: _477  and  _480
REMARK  197  A    between atoms: _480  and  _481
REMARK  198  A    between atoms: _484  and  _486
REMARK  199  A    between atoms: _486  and  _487
REMARK  200  A    between atoms: _486  and  _489
REMARK  201  A    between atoms: _489  and  _490
REMARK  202  A    between atoms: _495  and  _497
REMARK  203  A    between atoms: _497  and  _498
REMARK  204  A    between atoms: _497  and  _500
REMARK  205  A    between atoms: _500  and  _501
REMARK  206  A    between atoms: _501  and  _502
REMARK  207  A    between atoms: _502  and  _503
REMARK  208  A    between atoms: _512  and  _514
REMARK  209  A    between atoms: _514  and  _515
REMARK  210  A    between atoms: _514  and  _517
REMARK  211  A    between atoms: _517  and  _518
REMARK  212  A    between atoms: _518  and  _519
REMARK  213  A    between atoms: _519  and  _520
REMARK  214  A    between atoms: _529  and  _531
REMARK  215  A    between atoms: _531  and  _532
REMARK  216  A    between atoms: _531  and  _534
REMARK  217  A    between atoms: _534  and  _535
REMARK  218  A    between atoms: _537  and  _539
REMARK  219  A    between atoms: _539  and  _540
REMARK  220  A    between atoms: _539  and  _542
REMARK  221  A    between atoms: _542  and  _543
REMARK  222  A    between atoms: _543  and  _544
REMARK  223  A    between atoms: _549  and  _551
REMARK  224  A    between atoms: _551  and  _552
REMARK  225  A    between atoms: _551  and  _554
REMARK  226  A    between atoms: _554  and  _555
REMARK  227  A    between atoms: _557  and  _559
REMARK  228  A    between atoms: _559  and  _560
REMARK  229  A    between atoms: _559  and  _562
REMARK  230  A    between atoms: _562  and  _563
REMARK  231  A    between atoms: _565  and  _567
REMARK  232  A    between atoms: _567  and  _568
REMARK  233  A    between atoms: _567  and  _570
REMARK  234  A    between atoms: _570  and  _571
REMARK  235  A    between atoms: _574  and  _576
REMARK  236  A    between atoms: _576  and  _577
REMARK  237  A    between atoms: _576  and  _579
REMARK  238  A    between atoms: _579  and  _580
REMARK  239  A    between atoms: _583  and  _585
REMARK  240  A    between atoms: _585  and  _586
REMARK  241  A    between atoms: _585  and  _588
REMARK  242  A    between atoms: _591  and  _593
REMARK  243  A    between atoms: _593  and  _594
REMARK  244  A    between atoms: _596  and  _598
REMARK  245  A    between atoms: _598  and  _599
REMARK  246  A    between atoms: _602  and  _604
REMARK  247  A    between atoms: _604  and  _605
REMARK  248  A    between atoms: _604  and  _607
REMARK                            x       y       z     vdW  Elec       q    Type
REMARK                         _______ _______ _______ _____ _____    ______ ____
ROOT
ATOM      1  O   HOH     1      30.928  16.186  17.425  0.00  0.00    +0.000 OA
ENDROOT
TORSDOF 0
REMARK  Name = ../refined-set-2016/2qmg/2qmg_pocket.pdb
REMARK  248 active torsions:
REMARK  status: ('A' for Active; 'I' for Inactive)
REMARK    1  A    between atoms: _1  and  _3
REMARK    2  A    between atoms: _3  and  _4
REMARK    3  A    between atoms: _3  and  _6
REMARK    4  A    between atoms: _6  and  _7
REMARK    5  A    between atoms: _7  and  _8
REMARK    6  A    between atoms: _8  and  _9
REMARK    7  A    between atoms: _9  and  _10
REMARK    8  A    between atoms: _14  and  _16
REMARK    9  A    between atoms: _16  and  _17
REMARK   10  A    between atoms: _16  and  _19
REMARK   11  A    between atoms: _19  and  _20
REMARK   12  A    between atoms: _22  and  _24
REMARK   13  A    between atoms: _24  and  _25
REMARK   14  A    between atoms: _27  and  _29
REMARK   15  A    between atoms: _29  and  _30
REMARK   16  A    between atoms: _29  and  _32
REMARK   17  A    between atoms: _32  and  _33
REMARK   18  A    between atoms: _33  and  _34
REMARK   19  A    between atoms: _39  and  _41
REMARK   20  A    between atoms: _41  and  _42
REMARK   21  A    between atoms: _44  and  _46
REMARK   22  A    between atoms: _46  and  _47
REMARK   23  A    between atoms: _46  and  _49
REMARK   24  A    between atoms: _49  and  _50
REMARK   25  A    between atoms: _55  and  _56
REMARK   26  A    between atoms: _58  and  _60
REMARK   27  A    between atoms: _60  and  _61
REMARK   28  A    between atoms: _60  and  _63
REMARK   29  A    between atoms: _63  and  _64
REMARK   30  A    between atoms: _67  and  _69
REMARK   31  A    between atoms: _69  and  _70
REMARK   32  A    between atoms: _69  and  _72
REMARK   33  A    between atoms: _75  and  _77
REMARK   34  A    between atoms: _77  and  _78
REMARK   35  A    between atoms: _77  and  _80
REMARK   36  A    between atoms: _80  and  _81
REMARK   37  A    between atoms: _84  and  _86
REMARK   38  A    between atoms: _86  and  _87
REMARK   39  A    between atoms: _86  and  _89
REMARK   40  A    between atoms: _89  and  _90
REMARK   41  A    between atoms: _93  and  _95
REMARK   42  A    between atoms: _95  and  _96
REMARK   43  A    between atoms: _98  and  _100
REMARK   44  A    between atoms: _100  and  _101
REMARK   45  A    between atoms: _100  and  _103
REMARK   46  A    between atoms: _103  and  _104
REMARK   47  A    between atoms: _106  and  _108
REMARK   48  A    between atoms: _108  and  _109
REMARK   49  A    between atoms: _108  and  _111
REMARK   50  A    between atoms: _111  and  _112
REMARK   51  A    between atoms: _114  and  _116
REMARK   52  A    between atoms: _116  and  _117
REMARK   53  A    between atoms: _116  and  _119
REMARK   54  A    between atoms: _119  and  _120
REMARK   55  A    between atoms: _125  and  _127
REMARK   56  A    between atoms: _127  and  _128
REMARK   57  A    between atoms: _127  and  _130
REMARK   58  A    between atoms: _130  and  _131
REMARK   59  A    between atoms: _136  and  _137
REMARK   60  A    between atoms: _139  and  _141
REMARK   61  A    between atoms: _141  and  _142
REMARK   62  A    between atoms: _141  and  _144
REMARK   63  A    between atoms: _148  and  _149
REMARK   64  A    between atoms: _154  and  _156
REMARK   65  A    between atoms: _156  and  _157
REMARK   66  A    between atoms: _156  and  _159
REMARK   67  A    between atoms: _159  and  _160
REMARK   68  A    between atoms: _165  and  _166
REMARK   69  A    between atoms: _168  and  _170
REMARK   70  A    between atoms: _170  and  _171
REMARK   71  A    between atoms: _170  and  _173
REMARK   72  A    between atoms: _173  and  _174
REMARK   73  A    between atoms: _177  and  _179
REMARK   74  A    between atoms: _179  and  _180
REMARK   75  A    between atoms: _179  and  _182
REMARK   76  A    between atoms: _182  and  _183
REMARK   77  A    between atoms: _183  and  _184
REMARK   78  A    between atoms: _189  and  _191
REMARK   79  A    between atoms: _191  and  _192
REMARK   80  A    between atoms: _194  and  _196
REMARK   81  A    between atoms: _196  and  _197
REMARK   82  A    between atoms: _196  and  _199
REMARK   83  A    between atoms: _199  and  _200
REMARK   84  A    between atoms: _200  and  _201
REMARK   85  A    between atoms: _201  and  _202
REMARK   86  A    between atoms: _202  and  _203
REMARK   87  A    between atoms: _207  and  _209
REMARK   88  A    between atoms: _209  and  _210
REMARK   89  A    between atoms: _209  and  _212
REMARK   90  A    between atoms: _212  and  _213
REMARK   91  A    between atoms: _223  and  _225
REMARK   92  A    between atoms: _225  and  _226
REMARK   93  A    between atoms: _225  and  _228
REMARK   94  A    between atoms: _228  and  _229
REMARK   95  A    between atoms: _232  and  _234
REMARK   96  A    between atoms: _234  and  _235
REMARK   97  A    between atoms: _234  and  _237
REMARK   98  A    between atoms: _237  and  _238
REMARK   99  A    between atoms: _238  and  _239
REMARK  100  A    between atoms: _239  and  _240
REMARK  101  A    between atoms: _240  and  _241
REMARK  102  A    between atoms: _245  and  _247
REMARK  103  A    between atoms: _247  and  _248
REMARK  104  A    between atoms: _247  and  _250
REMARK  105  A    between atoms: _250  and  _251
REMARK  106  A    between atoms: _257  and  _259
REMARK  107  A    between atoms: _259  and  _260
REMARK  108  A    between atoms: _259  and  _262
REMARK  109  A    between atoms: _262  and  _263
REMARK  110  A    between atoms: _269  and  _271
REMARK  111  A    between atoms: _271  and  _272
REMARK  112  A    between atoms: _271  and  _274
REMARK  113  A    between atoms: _274  and  _275
REMARK  114  A    between atoms: _278  and  _280
REMARK  115  A    between atoms: _280  and  _281
REMARK  116  A    between atoms: _280  and  _283
REMARK  117  A    between atoms: _283  and  _284
REMARK  118  A    between atoms: _286  and  _288
REMARK  119  A    between atoms: _288  and  _289
REMARK  120  A    between atoms: _288  and  _291
REMARK  121  A    between atoms: _291  and  _292
REMARK  122  A    between atoms: _302  and  _304
REMARK  123  A    between atoms: _304  and  _305
REMARK  124  A    between atoms: _307  and  _309
REMARK  125  A    between atoms: _309  and  _310
REMARK  126  A    between atoms: _309  and  _312
REMARK  127  A    between atoms: _312  and  _313
REMARK  128  A    between atoms: _316  and  _318
REMARK  129  A    between atoms: _318  and  _319
REMARK  130  A    between atoms: _318  and  _321
REMARK  131  A    between atoms: _321  and  _322
REMARK  132  A    between atoms: _325  and  _327
REMARK  133  A    between atoms: _327  and  _328
REMARK  134  A    between atoms: _330  and  _332
REMARK  135  A    between atoms: _332  and  _333
REMARK  136  A    between atoms: _332  and  _335
REMARK  137  A    between atoms: _335  and  _336
REMARK  138  A    between atoms: _339  and  _341
REMARK  139  A    between atoms: _341  and  _342
REMARK  140  A    between atoms: _345  and  _347
REMARK  141  A    between atoms: _347  and  _348
REMARK  142  A    between atoms: _347  and  _350
REMARK  143  A    between atoms: _350  and  _351
REMARK  144  A    between atoms: _354  and  _356
REMARK  145  A    between atoms: _356  and  _357
REMARK  146  A    between atoms: _360  and  _362
REMARK  147  A    between atoms: _362  and  _363
REMARK  148  A    between atoms: _362  and  _365
REMARK  149  A    between atoms: _365  and  _366
REMARK  150  A    between atoms: _366  and  _367
REMARK  151  A    between atoms: _367  and  _368
REMARK  152  A    between atoms: _377  and  _379
REMARK  153  A    between atoms: _379  and  _380
REMARK  154  A    between atoms: _379  and  _382
REMARK  155  A    between atoms: _382  and  _383
REMARK  156  A    between atoms: _386  and  _388
REMARK  157  A    between atoms: _388  and  _389
REMARK  158  A    between atoms: _388  and  _391
REMARK  159  A    between atoms: _391  and  _392
REMARK  160  A    between atoms: _397  and  _398
REMARK  161  A    between atoms: _400  and  _402
REMARK  162  A    between atoms: _402  and  _403
REMARK  163  A    between atoms: _402  and  _405
REMARK  164  A    between atoms: _405  and  _406
REMARK  165  A    between atoms: _411  and  _412
REMARK  166  A    between atoms: _414  and  _416
REMARK  167  A    between atoms: _416  and  _417
REMARK  168  A    between atoms: _416  and  _419
REMARK  169  A    between atoms: _419  and  _420
REMARK  170  A    between atoms: _420  and  _421
REMARK  171  A    between atoms: _421  and  _422
REMARK  172  A    between atoms: _422  and  _423
REMARK  173  A    between atoms: _427  and  _429
REMARK  174  A    between atoms: _429  and  _430
REMARK  175  A    between atoms: _429  and  _432
REMARK  176  A    between atoms: _432  and  _433
REMARK  177  A    between atoms: _436  and  _438
REMARK  178  A    between atoms: _438  and  _439
REMARK  179  A    between atoms: _438  and  _441
REMARK  180  A    between atoms: _444  and  _446
REMARK  181  A    between atoms: _446  and  _447
REMARK  182  A    between atoms: _446  and  _449
REMARK  183  A    between atoms: _449  and  _450
REMARK  184  A    between atoms: _453  and  _455
REMARK  185  A    between atoms: _455  and  _456
REMARK  186  A    between atoms: _455  and  _458
REMARK  187  A    between atoms: _458  and  _459
REMARK  188  A    between atoms: _461  and  _463
REMARK  189  A    between atoms: _463  and  _464
REMARK  190  A    between atoms: _466  and  _468
REMARK  191  A    between atoms: _468  and  _469
REMARK  192  A    between atoms: _468  and  _471
REMARK  193  A    between atoms: _471  and  _472
REMARK  194  A    between atoms: _475  and  _477
REMARK  195  A    between atoms: _477  and  _478
REMARK  196  A    between atoms: _477  and  _480
REMARK  197  A    between atoms: _480  and  _481
REMARK  198  A    between atoms: _484  and  _486
REMARK  199  A    between atoms: _486  and  _487
REMARK  200  A    between atoms: _486  and  _489
REMARK  201  A    between atoms: _489  and  _490
REMARK  202  A    between atoms: _495  and  _497
REMARK  203  A    between atoms: _497  and  _498
REMARK  204  A    between atoms: _497  and  _500
REMARK  205  A    between atoms: _500  and  _501
REMARK  206  A    between atoms: _501  and  _502
REMARK  207  A    between atoms: _502  and  _503
REMARK  208  A    between atoms: _512  and  _514
REMARK  209  A    between atoms: _514  and  _515
REMARK  210  A    between atoms: _514  and  _517
REMARK  211  A    between atoms: _517  and  _518
REMARK  212  A    between atoms: _518  and  _519
REMARK  213  A    between atoms: _519  and  _520
REMARK  214  A    between atoms: _529  and  _531
REMARK  215  A    between atoms: _531  and  _532
REMARK  216  A    between atoms: _531  and  _534
REMARK  217  A    between atoms: _534  and  _535
REMARK  218  A    between atoms: _537  and  _539
REMARK  219  A    between atoms: _539  and  _540
REMARK  220  A    between atoms: _539  and  _542
REMARK  221  A    between atoms: _542  and  _543
REMARK  222  A    between atoms: _543  and  _544
REMARK  223  A    between atoms: _549  and  _551
REMARK  224  A    between atoms: _551  and  _552
REMARK  225  A    between atoms: _551  and  _554
REMARK  226  A    between atoms: _554  and  _555
REMARK  227  A    between atoms: _557  and  _559
REMARK  228  A    between atoms: _559  and  _560
REMARK  229  A    between atoms: _559  and  _562
REMARK  230  A    between atoms: _562  and  _563
REMARK  231  A    between atoms: _565  and  _567
REMARK  232  A    between atoms: _567  and  _568
REMARK  233  A    between atoms: _567  and  _570
REMARK  234  A    between atoms: _570  and  _571
REMARK  235  A    between atoms: _574  and  _576
REMARK  236  A    between atoms: _576  and  _577
REMARK  237  A    between atoms: _576  and  _579
REMARK  238  A    between atoms: _579  and  _580
REMARK  239  A    between atoms: _583  and  _585
REMARK  240  A    between atoms: _585  and  _586
REMARK  241  A    between atoms: _585  and  _588
REMARK  242  A    between atoms: _591  and  _593
REMARK  243  A    between atoms: _593  and  _594
REMARK  244  A    between atoms: _596  and  _598
REMARK  245  A    between atoms: _598  and  _599
REMARK  246  A    between atoms: _602  and  _604
REMARK  247  A    between atoms: _604  and  _605
REMARK  248  A    between atoms: _604  and  _607
REMARK                            x       y       z     vdW  Elec       q    Type
REMARK                         _______ _______ _______ _____ _____    ______ ____
ROOT
ATOM      1  O   HOH     1      34.978  16.141  26.641  0.00  0.00    +0.000 OA
ENDROOT
TORSDOF 0
REMARK  Name = ../refined-set-2016/2qmg/2qmg_pocket.pdb
REMARK  248 active torsions:
REMARK  status: ('A' for Active; 'I' for Inactive)
REMARK    1  A    between atoms: _1  and  _3
REMARK    2  A    between atoms: _3  and  _4
REMARK    3  A    between atoms: _3  and  _6
REMARK    4  A    between atoms: _6  and  _7
REMARK    5  A    between atoms: _7  and  _8
REMARK    6  A    between atoms: _8  and  _9
REMARK    7  A    between atoms: _9  and  _10
REMARK    8  A    between atoms: _14  and  _16
REMARK    9  A    between atoms: _16  and  _17
REMARK   10  A    between atoms: _16  and  _19
REMARK   11  A    between atoms: _19  and  _20
REMARK   12  A    between atoms: _22  and  _24
REMARK   13  A    between atoms: _24  and  _25
REMARK   14  A    between atoms: _27  and  _29
REMARK   15  A    between atoms: _29  and  _30
REMARK   16  A    between atoms: _29  and  _32
REMARK   17  A    between atoms: _32  and  _33
REMARK   18  A    between atoms: _33  and  _34
REMARK   19  A    between atoms: _39  and  _41
REMARK   20  A    between atoms: _41  and  _42
REMARK   21  A    between atoms: _44  and  _46
REMARK   22  A    between atoms: _46  and  _47
REMARK   23  A    between atoms: _46  and  _49
REMARK   24  A    between atoms: _49  and  _50
REMARK   25  A    between atoms: _55  and  _56
REMARK   26  A    between atoms: _58  and  _60
REMARK   27  A    between atoms: _60  and  _61
REMARK   28  A    between atoms: _60  and  _63
REMARK   29  A    between atoms: _63  and  _64
REMARK   30  A    between atoms: _67  and  _69
REMARK   31  A    between atoms: _69  and  _70
REMARK   32  A    between atoms: _69  and  _72
REMARK   33  A    between atoms: _75  and  _77
REMARK   34  A    between atoms: _77  and  _78
REMARK   35  A    between atoms: _77  and  _80
REMARK   36  A    between atoms: _80  and  _81
REMARK   37  A    between atoms: _84  and  _86
REMARK   38  A    between atoms: _86  and  _87
REMARK   39  A    between atoms: _86  and  _89
REMARK   40  A    between atoms: _89  and  _90
REMARK   41  A    between atoms: _93  and  _95
REMARK   42  A    between atoms: _95  and  _96
REMARK   43  A    between atoms: _98  and  _100
REMARK   44  A    between atoms: _100  and  _101
REMARK   45  A    between atoms: _100  and  _103
REMARK   46  A    between atoms: _103  and  _104
REMARK   47  A    between atoms: _106  and  _108
REMARK   48  A    between atoms: _108  and  _109
REMARK   49  A    between atoms: _108  and  _111
REMARK   50  A    between atoms: _111  and  _112
REMARK   51  A    between atoms: _114  and  _116
REMARK   52  A    between atoms: _116  and  _117
REMARK   53  A    between atoms: _116  and  _119
REMARK   54  A    between atoms: _119  and  _120
REMARK   55  A    between atoms: _125  and  _127
REMARK   56  A    between atoms: _127  and  _128
REMARK   57  A    between atoms: _127  and  _130
REMARK   58  A    between atoms: _130  and  _131
REMARK   59  A    between atoms: _136  and  _137
REMARK   60  A    between atoms: _139  and  _141
REMARK   61  A    between atoms: _141  and  _142
REMARK   62  A    between atoms: _141  and  _144
REMARK   63  A    between atoms: _148  and  _149
REMARK   64  A    between atoms: _154  and  _156
REMARK   65  A    between atoms: _156  and  _157
REMARK   66  A    between atoms: _156  and  _159
REMARK   67  A    between atoms: _159  and  _160
REMARK   68  A    between atoms: _165  and  _166
REMARK   69  A    between atoms: _168  and  _170
REMARK   70  A    between atoms: _170  and  _171
REMARK   71  A    between atoms: _170  and  _173
REMARK   72  A    between atoms: _173  and  _174
REMARK   73  A    between atoms: _177  and  _179
REMARK   74  A    between atoms: _179  and  _180
REMARK   75  A    between atoms: _179  and  _182
REMARK   76  A    between atoms: _182  and  _183
REMARK   77  A    between atoms: _183  and  _184
REMARK   78  A    between atoms: _189  and  _191
REMARK   79  A    between atoms: _191  and  _192
REMARK   80  A    between atoms: _194  and  _196
REMARK   81  A    between atoms: _196  and  _197
REMARK   82  A    between atoms: _196  and  _199
REMARK   83  A    between atoms: _199  and  _200
REMARK   84  A    between atoms: _200  and  _201
REMARK   85  A    between atoms: _201  and  _202
REMARK   86  A    between atoms: _202  and  _203
REMARK   87  A    between atoms: _207  and  _209
REMARK   88  A    between atoms: _209  and  _210
REMARK   89  A    between atoms: _209  and  _212
REMARK   90  A    between atoms: _212  and  _213
REMARK   91  A    between atoms: _223  and  _225
REMARK   92  A    between atoms: _225  and  _226
REMARK   93  A    between atoms: _225  and  _228
REMARK   94  A    between atoms: _228  and  _229
REMARK   95  A    between atoms: _232  and  _234
REMARK   96  A    between atoms: _234  and  _235
REMARK   97  A    between atoms: _234  and  _237
REMARK   98  A    between atoms: _237  and  _238
REMARK   99  A    between atoms: _238  and  _239
REMARK  100  A    between atoms: _239  and  _240
REMARK  101  A    between atoms: _240  and  _241
REMARK  102  A    between atoms: _245  and  _247
REMARK  103  A    between atoms: _247  and  _248
REMARK  104  A    between atoms: _247  and  _250
REMARK  105  A    between atoms: _250  and  _251
REMARK  106  A    between atoms: _257  and  _259
REMARK  107  A    between atoms: _259  and  _260
REMARK  108  A    between atoms: _259  and  _262
REMARK  109  A    between atoms: _262  and  _263
REMARK  110  A    between atoms: _269  and  _271
REMARK  111  A    between atoms: _271  and  _272
REMARK  112  A    between atoms: _271  and  _274
REMARK  113  A    between atoms: _274  and  _275
REMARK  114  A    between atoms: _278  and  _280
REMARK  115  A    between atoms: _280  and  _281
REMARK  116  A    between atoms: _280  and  _283
REMARK  117  A    between atoms: _283  and  _284
REMARK  118  A    between atoms: _286  and  _288
REMARK  119  A    between atoms: _288  and  _289
REMARK  120  A    between atoms: _288  and  _291
REMARK  121  A    between atoms: _291  and  _292
REMARK  122  A    between atoms: _302  and  _304
REMARK  123  A    between atoms: _304  and  _305
REMARK  124  A    between atoms: _307  and  _309
REMARK  125  A    between atoms: _309  and  _310
REMARK  126  A    between atoms: _309  and  _312
REMARK  127  A    between atoms: _312  and  _313
REMARK  128  A    between atoms: _316  and  _318
REMARK  129  A    between atoms: _318  and  _319
REMARK  130  A    between atoms: _318  and  _321
REMARK  131  A    between atoms: _321  and  _322
REMARK  132  A    between atoms: _325  and  _327
REMARK  133  A    between atoms: _327  and  _328
REMARK  134  A    between atoms: _330  and  _332
REMARK  135  A    between atoms: _332  and  _333
REMARK  136  A    between atoms: _332  and  _335
REMARK  137  A    between atoms: _335  and  _336
REMARK  138  A    between atoms: _339  and  _341
REMARK  139  A    between atoms: _341  and  _342
REMARK  140  A    between atoms: _345  and  _347
REMARK  141  A    between atoms: _347  and  _348
REMARK  142  A    between atoms: _347  and  _350
REMARK  143  A    between atoms: _350  and  _351
REMARK  144  A    between atoms: _354  and  _356
REMARK  145  A    between atoms: _356  and  _357
REMARK  146  A    between atoms: _360  and  _362
REMARK  147  A    between atoms: _362  and  _363
REMARK  148  A    between atoms: _362  and  _365
REMARK  149  A    between atoms: _365  and  _366
REMARK  150  A    between atoms: _366  and  _367
REMARK  151  A    between atoms: _367  and  _368
REMARK  152  A    between atoms: _377  and  _379
REMARK  153  A    between atoms: _379  and  _380
REMARK  154  A    between atoms: _379  and  _382
REMARK  155  A    between atoms: _382  and  _383
REMARK  156  A    between atoms: _386  and  _388
REMARK  157  A    between atoms: _388  and  _389
REMARK  158  A    between atoms: _388  and  _391
REMARK  159  A    between atoms: _391  and  _392
REMARK  160  A    between atoms: _397  and  _398
REMARK  161  A    between atoms: _400  and  _402
REMARK  162  A    between atoms: _402  and  _403
REMARK  163  A    between atoms: _402  and  _405
REMARK  164  A    between atoms: _405  and  _406
REMARK  165  A    between atoms: _411  and  _412
REMARK  166  A    between atoms: _414  and  _416
REMARK  167  A    between atoms: _416  and  _417
REMARK  168  A    between atoms: _416  and  _419
REMARK  169  A    between atoms: _419  and  _420
REMARK  170  A    between atoms: _420  and  _421
REMARK  171  A    between atoms: _421  and  _422
REMARK  172  A    between atoms: _422  and  _423
REMARK  173  A    between atoms: _427  and  _429
REMARK  174  A    between atoms: _429  and  _430
REMARK  175  A    between atoms: _429  and  _432
REMARK  176  A    between atoms: _432  and  _433
REMARK  177  A    between atoms: _436  and  _438
REMARK  178  A    between atoms: _438  and  _439
REMARK  179  A    between atoms: _438  and  _441
REMARK  180  A    between atoms: _444  and  _446
REMARK  181  A    between atoms: _446  and  _447
REMARK  182  A    between atoms: _446  and  _449
REMARK  183  A    between atoms: _449  and  _450
REMARK  184  A    between atoms: _453  and  _455
REMARK  185  A    between atoms: _455  and  _456
REMARK  186  A    between atoms: _455  and  _458
REMARK  187  A    between atoms: _458  and  _459
REMARK  188  A    between atoms: _461  and  _463
REMARK  189  A    between atoms: _463  and  _464
REMARK  190  A    between atoms: _466  and  _468
REMARK  191  A    between atoms: _468  and  _469
REMARK  192  A    between atoms: _468  and  _471
REMARK  193  A    between atoms: _471  and  _472
REMARK  194  A    between atoms: _475  and  _477
REMARK  195  A    between atoms: _477  and  _478
REMARK  196  A    between atoms: _477  and  _480
REMARK  197  A    between atoms: _480  and  _481
REMARK  198  A    between atoms: _484  and  _486
REMARK  199  A    between atoms: _486  and  _487
REMARK  200  A    between atoms: _486  and  _489
REMARK  201  A    between atoms: _489  and  _490
REMARK  202  A    between atoms: _495  and  _497
REMARK  203  A    between atoms: _497  and  _498
REMARK  204  A    between atoms: _497  and  _500
REMARK  205  A    between atoms: _500  and  _501
REMARK  206  A    between atoms: _501  and  _502
REMARK  207  A    between atoms: _502  and  _503
REMARK  208  A    between atoms: _512  and  _514
REMARK  209  A    between atoms: _514  and  _515
REMARK  210  A    between atoms: _514  and  _517
REMARK  211  A    between atoms: _517  and  _518
REMARK  212  A    between atoms: _518  and  _519
REMARK  213  A    between atoms: _519  and  _520
REMARK  214  A    between atoms: _529  and  _531
REMARK  215  A    between atoms: _531  and  _532
REMARK  216  A    between atoms: _531  and  _534
REMARK  217  A    between atoms: _534  and  _535
REMARK  218  A    between atoms: _537  and  _539
REMARK  219  A    between atoms: _539  and  _540
REMARK  220  A    between atoms: _539  and  _542
REMARK  221  A    between atoms: _542  and  _543
REMARK  222  A    between atoms: _543  and  _544
REMARK  223  A    between atoms: _549  and  _551
REMARK  224  A    between atoms: _551  and  _552
REMARK  225  A    between atoms: _551  and  _554
REMARK  226  A    between atoms: _554  and  _555
REMARK  227  A    between atoms: _557  and  _559
REMARK  228  A    between atoms: _559  and  _560
REMARK  229  A    between atoms: _559  and  _562
REMARK  230  A    between atoms: _562  and  _563
REMARK  231  A    between atoms: _565  and  _567
REMARK  232  A    between atoms: _567  and  _568
REMARK  233  A    between atoms: _567  and  _570
REMARK  234  A    between atoms: _570  and  _571
REMARK  235  A    between atoms: _574  and  _576
REMARK  236  A    between atoms: _576  and  _577
REMARK  237  A    between atoms: _576  and  _579
REMARK  238  A    between atoms: _579  and  _580
REMARK  239  A    between atoms: _583  and  _585
REMARK  240  A    between atoms: _585  and  _586
REMARK  241  A    between atoms: _585  and  _588
REMARK  242  A    between atoms: _591  and  _593
REMARK  243  A    between atoms: _593  and  _594
REMARK  244  A    between atoms: _596  and  _598
REMARK  245  A    between atoms: _598  and  _599
REMARK  246  A    between atoms: _602  and  _604
REMARK  247  A    between atoms: _604  and  _605
REMARK  248  A    between atoms: _604  and  _607
REMARK                            x       y       z     vdW  Elec       q    Type
REMARK                         _______ _______ _______ _____ _____    ______ ____
ROOT
ATOM      1  O   HOH     1      27.682  19.077  29.152  0.00  0.00    +0.000 OA
ENDROOT
TORSDOF 0
REMARK  Name = ../refined-set-2016/2qmg/2qmg_pocket.pdb
REMARK  248 active torsions:
REMARK  status: ('A' for Active; 'I' for Inactive)
REMARK    1  A    between atoms: _1  and  _3
REMARK    2  A    between atoms: _3  and  _4
REMARK    3  A    between atoms: _3  and  _6
REMARK    4  A    between atoms: _6  and  _7
REMARK    5  A    between atoms: _7  and  _8
REMARK    6  A    between atoms: _8  and  _9
REMARK    7  A    between atoms: _9  and  _10
REMARK    8  A    between atoms: _14  and  _16
REMARK    9  A    between atoms: _16  and  _17
REMARK   10  A    between atoms: _16  and  _19
REMARK   11  A    between atoms: _19  and  _20
REMARK   12  A    between atoms: _22  and  _24
REMARK   13  A    between atoms: _24  and  _25
REMARK   14  A    between atoms: _27  and  _29
REMARK   15  A    between atoms: _29  and  _30
REMARK   16  A    between atoms: _29  and  _32
REMARK   17  A    between atoms: _32  and  _33
REMARK   18  A    between atoms: _33  and  _34
REMARK   19  A    between atoms: _39  and  _41
REMARK   20  A    between atoms: _41  and  _42
REMARK   21  A    between atoms: _44  and  _46
REMARK   22  A    between atoms: _46  and  _47
REMARK   23  A    between atoms: _46  and  _49
REMARK   24  A    between atoms: _49  and  _50
REMARK   25  A    between atoms: _55  and  _56
REMARK   26  A    between atoms: _58  and  _60
REMARK   27  A    between atoms: _60  and  _61
REMARK   28  A    between atoms: _60  and  _63
REMARK   29  A    between atoms: _63  and  _64
REMARK   30  A    between atoms: _67  and  _69
REMARK   31  A    between atoms: _69  and  _70
REMARK   32  A    between atoms: _69  and  _72
REMARK   33  A    between atoms: _75  and  _77
REMARK   34  A    between atoms: _77  and  _78
REMARK   35  A    between atoms: _77  and  _80
REMARK   36  A    between atoms: _80  and  _81
REMARK   37  A    between atoms: _84  and  _86
REMARK   38  A    between atoms: _86  and  _87
REMARK   39  A    between atoms: _86  and  _89
REMARK   40  A    between atoms: _89  and  _90
REMARK   41  A    between atoms: _93  and  _95
REMARK   42  A    between atoms: _95  and  _96
REMARK   43  A    between atoms: _98  and  _100
REMARK   44  A    between atoms: _100  and  _101
REMARK   45  A    between atoms: _100  and  _103
REMARK   46  A    between atoms: _103  and  _104
REMARK   47  A    between atoms: _106  and  _108
REMARK   48  A    between atoms: _108  and  _109
REMARK   49  A    between atoms: _108  and  _111
REMARK   50  A    between atoms: _111  and  _112
REMARK   51  A    between atoms: _114  and  _116
REMARK   52  A    between atoms: _116  and  _117
REMARK   53  A    between atoms: _116  and  _119
REMARK   54  A    between atoms: _119  and  _120
REMARK   55  A    between atoms: _125  and  _127
REMARK   56  A    between atoms: _127  and  _128
REMARK   57  A    between atoms: _127  and  _130
REMARK   58  A    between atoms: _130  and  _131
REMARK   59  A    between atoms: _136  and  _137
REMARK   60  A    between atoms: _139  and  _141
REMARK   61  A    between atoms: _141  and  _142
REMARK   62  A    between atoms: _141  and  _144
REMARK   63  A    between atoms: _148  and  _149
REMARK   64  A    between atoms: _154  and  _156
REMARK   65  A    between atoms: _156  and  _157
REMARK   66  A    between atoms: _156  and  _159
REMARK   67  A    between atoms: _159  and  _160
REMARK   68  A    between atoms: _165  and  _166
REMARK   69  A    between atoms: _168  and  _170
REMARK   70  A    between atoms: _170  and  _171
REMARK   71  A    between atoms: _170  and  _173
REMARK   72  A    between atoms: _173  and  _174
REMARK   73  A    between atoms: _177  and  _179
REMARK   74  A    between atoms: _179  and  _180
REMARK   75  A    between atoms: _179  and  _182
REMARK   76  A    between atoms: _182  and  _183
REMARK   77  A    between atoms: _183  and  _184
REMARK   78  A    between atoms: _189  and  _191
REMARK   79  A    between atoms: _191  and  _192
REMARK   80  A    between atoms: _194  and  _196
REMARK   81  A    between atoms: _196  and  _197
REMARK   82  A    between atoms: _196  and  _199
REMARK   83  A    between atoms: _199  and  _200
REMARK   84  A    between atoms: _200  and  _201
REMARK   85  A    between atoms: _201  and  _202
REMARK   86  A    between atoms: _202  and  _203
REMARK   87  A    between atoms: _207  and  _209
REMARK   88  A    between atoms: _209  and  _210
REMARK   89  A    between atoms: _209  and  _212
REMARK   90  A    between atoms: _212  and  _213
REMARK   91  A    between atoms: _223  and  _225
REMARK   92  A    between atoms: _225  and  _226
REMARK   93  A    between atoms: _225  and  _228
REMARK   94  A    between atoms: _228  and  _229
REMARK   95  A    between atoms: _232  and  _234
REMARK   96  A    between atoms: _234  and  _235
REMARK   97  A    between atoms: _234  and  _237
REMARK   98  A    between atoms: _237  and  _238
REMARK   99  A    between atoms: _238  and  _239
REMARK  100  A    between atoms: _239  and  _240
REMARK  101  A    between atoms: _240  and  _241
REMARK  102  A    between atoms: _245  and  _247
REMARK  103  A    between atoms: _247  and  _248
REMARK  104  A    between atoms: _247  and  _250
REMARK  105  A    between atoms: _250  and  _251
REMARK  106  A    between atoms: _257  and  _259
REMARK  107  A    between atoms: _259  and  _260
REMARK  108  A    between atoms: _259  and  _262
REMARK  109  A    between atoms: _262  and  _263
REMARK  110  A    between atoms: _269  and  _271
REMARK  111  A    between atoms: _271  and  _272
REMARK  112  A    between atoms: _271  and  _274
REMARK  113  A    between atoms: _274  and  _275
REMARK  114  A    between atoms: _278  and  _280
REMARK  115  A    between atoms: _280  and  _281
REMARK  116  A    between atoms: _280  and  _283
REMARK  117  A    between atoms: _283  and  _284
REMARK  118  A    between atoms: _286  and  _288
REMARK  119  A    between atoms: _288  and  _289
REMARK  120  A    between atoms: _288  and  _291
REMARK  121  A    between atoms: _291  and  _292
REMARK  122  A    between atoms: _302  and  _304
REMARK  123  A    between atoms: _304  and  _305
REMARK  124  A    between atoms: _307  and  _309
REMARK  125  A    between atoms: _309  and  _310
REMARK  126  A    between atoms: _309  and  _312
REMARK  127  A    between atoms: _312  and  _313
REMARK  128  A    between atoms: _316  and  _318
REMARK  129  A    between atoms: _318  and  _319
REMARK  130  A    between atoms: _318  and  _321
REMARK  131  A    between atoms: _321  and  _322
REMARK  132  A    between atoms: _325  and  _327
REMARK  133  A    between atoms: _327  and  _328
REMARK  134  A    between atoms: _330  and  _332
REMARK  135  A    between atoms: _332  and  _333
REMARK  136  A    between atoms: _332  and  _335
REMARK  137  A    between atoms: _335  and  _336
REMARK  138  A    between atoms: _339  and  _341
REMARK  139  A    between atoms: _341  and  _342
REMARK  140  A    between atoms: _345  and  _347
REMARK  141  A    between atoms: _347  and  _348
REMARK  142  A    between atoms: _347  and  _350
REMARK  143  A    between atoms: _350  and  _351
REMARK  144  A    between atoms: _354  and  _356
REMARK  145  A    between atoms: _356  and  _357
REMARK  146  A    between atoms: _360  and  _362
REMARK  147  A    between atoms: _362  and  _363
REMARK  148  A    between atoms: _362  and  _365
REMARK  149  A    between atoms: _365  and  _366
REMARK  150  A    between atoms: _366  and  _367
REMARK  151  A    between atoms: _367  and  _368
REMARK  152  A    between atoms: _377  and  _379
REMARK  153  A    between atoms: _379  and  _380
REMARK  154  A    between atoms: _379  and  _382
REMARK  155  A    between atoms: _382  and  _383
REMARK  156  A    between atoms: _386  and  _388
REMARK  157  A    between atoms: _388  and  _389
REMARK  158  A    between atoms: _388  and  _391
REMARK  159  A    between atoms: _391  and  _392
REMARK  160  A    between atoms: _397  and  _398
REMARK  161  A    between atoms: _400  and  _402
REMARK  162  A    between atoms: _402  and  _403
REMARK  163  A    between atoms: _402  and  _405
REMARK  164  A    between atoms: _405  and  _406
REMARK  165  A    between atoms: _411  and  _412
REMARK  166  A    between atoms: _414  and  _416
REMARK  167  A    between atoms: _416  and  _417
REMARK  168  A    between atoms: _416  and  _419
REMARK  169  A    between atoms: _419  and  _420
REMARK  170  A    between atoms: _420  and  _421
REMARK  171  A    between atoms: _421  and  _422
REMARK  172  A    between atoms: _422  and  _423
REMARK  173  A    between atoms: _427  and  _429
REMARK  174  A    between atoms: _429  and  _430
REMARK  175  A    between atoms: _429  and  _432
REMARK  176  A    between atoms: _432  and  _433
REMARK  177  A    between atoms: _436  and  _438
REMARK  178  A    between atoms: _438  and  _439
REMARK  179  A    between atoms: _438  and  _441
REMARK  180  A    between atoms: _444  and  _446
REMARK  181  A    between atoms: _446  and  _447
REMARK  182  A    between atoms: _446  and  _449
REMARK  183  A    between atoms: _449  and  _450
REMARK  184  A    between atoms: _453  and  _455
REMARK  185  A    between atoms: _455  and  _456
REMARK  186  A    between atoms: _455  and  _458
REMARK  187  A    between atoms: _458  and  _459
REMARK  188  A    between atoms: _461  and  _463
REMARK  189  A    between atoms: _463  and  _464
REMARK  190  A    between atoms: _466  and  _468
REMARK  191  A    between atoms: _468  and  _469
REMARK  192  A    between atoms: _468  and  _471
REMARK  193  A    between atoms: _471  and  _472
REMARK  194  A    between atoms: _475  and  _477
REMARK  195  A    between atoms: _477  and  _478
REMARK  196  A    between atoms: _477  and  _480
REMARK  197  A    between atoms: _480  and  _481
REMARK  198  A    between atoms: _484  and  _486
REMARK  199  A    between atoms: _486  and  _487
REMARK  200  A    between atoms: _486  and  _489
REMARK  201  A    between atoms: _489  and  _490
REMARK  202  A    between atoms: _495  and  _497
REMARK  203  A    between atoms: _497  and  _498
REMARK  204  A    between atoms: _497  and  _500
REMARK  205  A    between atoms: _500  and  _501
REMARK  206  A    between atoms: _501  and  _502
REMARK  207  A    between atoms: _502  and  _503
REMARK  208  A    between atoms: _512  and  _514
REMARK  209  A    between atoms: _514  and  _515
REMARK  210  A    between atoms: _514  and  _517
REMARK  211  A    between atoms: _517  and  _518
REMARK  212  A    between atoms: _518  and  _519
REMARK  213  A    between atoms: _519  and  _520
REMARK  214  A    between atoms: _529  and  _531
REMARK  215  A    between atoms: _531  and  _532
REMARK  216  A    between atoms: _531  and  _534
REMARK  217  A    between atoms: _534  and  _535
REMARK  218  A    between atoms: _537  and  _539
REMARK  219  A    between atoms: _539  and  _540
REMARK  220  A    between atoms: _539  and  _542
REMARK  221  A    between atoms: _542  and  _543
REMARK  222  A    between atoms: _543  and  _544
REMARK  223  A    between atoms: _549  and  _551
REMARK  224  A    between atoms: _551  and  _552
REMARK  225  A    between atoms: _551  and  _554
REMARK  226  A    between atoms: _554  and  _555
REMARK  227  A    between atoms: _557  and  _559
REMARK  228  A    between atoms: _559  and  _560
REMARK  229  A    between atoms: _559  and  _562
REMARK  230  A    between atoms: _562  and  _563
REMARK  231  A    between atoms: _565  and  _567
REMARK  232  A    between atoms: _567  and  _568
REMARK  233  A    between atoms: _567  and  _570
REMARK  234  A    between atoms: _570  and  _571
REMARK  235  A    between atoms: _574  and  _576
REMARK  236  A    between atoms: _576  and  _577
REMARK  237  A    between atoms: _576  and  _579
REMARK  238  A    between atoms: _579  and  _580
REMARK  239  A    between atoms: _583  and  _585
REMARK  240  A    between atoms: _585  and  _586
REMARK  241  A    between atoms: _585  and  _588
REMARK  242  A    between atoms: _591  and  _593
REMARK  243  A    between atoms: _593  and  _594
REMARK  244  A    between atoms: _596  and  _598
REMARK  245  A    between atoms: _598  and  _599
REMARK  246  A    between atoms: _602  and  _604
REMARK  247  A    between atoms: _604  and  _605
REMARK  248  A    between atoms: _604  and  _607
REMARK                            x       y       z     vdW  Elec       q    Type
REMARK                         _______ _______ _______ _____ _____    ______ ____
ROOT
ATOM      1  O   HOH     1      31.819  19.344  26.992  0.00  0.00    +0.000 OA
ENDROOT
TORSDOF 0
REMARK  Name = ../refined-set-2016/2qmg/2qmg_pocket.pdb
REMARK  248 active torsions:
REMARK  status: ('A' for Active; 'I' for Inactive)
REMARK    1  A    between atoms: _1  and  _3
REMARK    2  A    between atoms: _3  and  _4
REMARK    3  A    between atoms: _3  and  _6
REMARK    4  A    between atoms: _6  and  _7
REMARK    5  A    between atoms: _7  and  _8
REMARK    6  A    between atoms: _8  and  _9
REMARK    7  A    between atoms: _9  and  _10
REMARK    8  A    between atoms: _14  and  _16
REMARK    9  A    between atoms: _16  and  _17
REMARK   10  A    between atoms: _16  and  _19
REMARK   11  A    between atoms: _19  and  _20
REMARK   12  A    between atoms: _22  and  _24
REMARK   13  A    between atoms: _24  and  _25
REMARK   14  A    between atoms: _27  and  _29
REMARK   15  A    between atoms: _29  and  _30
REMARK   16  A    between atoms: _29  and  _32
REMARK   17  A    between atoms: _32  and  _33
REMARK   18  A    between atoms: _33  and  _34
REMARK   19  A    between atoms: _39  and  _41
REMARK   20  A    between atoms: _41  and  _42
REMARK   21  A    between atoms: _44  and  _46
REMARK   22  A    between atoms: _46  and  _47
REMARK   23  A    between atoms: _46  and  _49
REMARK   24  A    between atoms: _49  and  _50
REMARK   25  A    between atoms: _55  and  _56
REMARK   26  A    between atoms: _58  and  _60
REMARK   27  A    between atoms: _60  and  _61
REMARK   28  A    between atoms: _60  and  _63
REMARK   29  A    between atoms: _63  and  _64
REMARK   30  A    between atoms: _67  and  _69
REMARK   31  A    between atoms: _69  and  _70
REMARK   32  A    between atoms: _69  and  _72
REMARK   33  A    between atoms: _75  and  _77
REMARK   34  A    between atoms: _77  and  _78
REMARK   35  A    between atoms: _77  and  _80
REMARK   36  A    between atoms: _80  and  _81
REMARK   37  A    between atoms: _84  and  _86
REMARK   38  A    between atoms: _86  and  _87
REMARK   39  A    between atoms: _86  and  _89
REMARK   40  A    between atoms: _89  and  _90
REMARK   41  A    between atoms: _93  and  _95
REMARK   42  A    between atoms: _95  and  _96
REMARK   43  A    between atoms: _98  and  _100
REMARK   44  A    between atoms: _100  and  _101
REMARK   45  A    between atoms: _100  and  _103
REMARK   46  A    between atoms: _103  and  _104
REMARK   47  A    between atoms: _106  and  _108
REMARK   48  A    between atoms: _108  and  _109
REMARK   49  A    between atoms: _108  and  _111
REMARK   50  A    between atoms: _111  and  _112
REMARK   51  A    between atoms: _114  and  _116
REMARK   52  A    between atoms: _116  and  _117
REMARK   53  A    between atoms: _116  and  _119
REMARK   54  A    between atoms: _119  and  _120
REMARK   55  A    between atoms: _125  and  _127
REMARK   56  A    between atoms: _127  and  _128
REMARK   57  A    between atoms: _127  and  _130
REMARK   58  A    between atoms: _130  and  _131
REMARK   59  A    between atoms: _136  and  _137
REMARK   60  A    between atoms: _139  and  _141
REMARK   61  A    between atoms: _141  and  _142
REMARK   62  A    between atoms: _141  and  _144
REMARK   63  A    between atoms: _148  and  _149
REMARK   64  A    between atoms: _154  and  _156
REMARK   65  A    between atoms: _156  and  _157
REMARK   66  A    between atoms: _156  and  _159
REMARK   67  A    between atoms: _159  and  _160
REMARK   68  A    between atoms: _165  and  _166
REMARK   69  A    between atoms: _168  and  _170
REMARK   70  A    between atoms: _170  and  _171
REMARK   71  A    between atoms: _170  and  _173
REMARK   72  A    between atoms: _173  and  _174
REMARK   73  A    between atoms: _177  and  _179
REMARK   74  A    between atoms: _179  and  _180
REMARK   75  A    between atoms: _179  and  _182
REMARK   76  A    between atoms: _182  and  _183
REMARK   77  A    between atoms: _183  and  _184
REMARK   78  A    between atoms: _189  and  _191
REMARK   79  A    between atoms: _191  and  _192
REMARK   80  A    between atoms: _194  and  _196
REMARK   81  A    between atoms: _196  and  _197
REMARK   82  A    between atoms: _196  and  _199
REMARK   83  A    between atoms: _199  and  _200
REMARK   84  A    between atoms: _200  and  _201
REMARK   85  A    between atoms: _201  and  _202
REMARK   86  A    between atoms: _202  and  _203
REMARK   87  A    between atoms: _207  and  _209
REMARK   88  A    between atoms: _209  and  _210
REMARK   89  A    between atoms: _209  and  _212
REMARK   90  A    between atoms: _212  and  _213
REMARK   91  A    between atoms: _223  and  _225
REMARK   92  A    between atoms: _225  and  _226
REMARK   93  A    between atoms: _225  and  _228
REMARK   94  A    between atoms: _228  and  _229
REMARK   95  A    between atoms: _232  and  _234
REMARK   96  A    between atoms: _234  and  _235
REMARK   97  A    between atoms: _234  and  _237
REMARK   98  A    between atoms: _237  and  _238
REMARK   99  A    between atoms: _238  and  _239
REMARK  100  A    between atoms: _239  and  _240
REMARK  101  A    between atoms: _240  and  _241
REMARK  102  A    between atoms: _245  and  _247
REMARK  103  A    between atoms: _247  and  _248
REMARK  104  A    between atoms: _247  and  _250
REMARK  105  A    between atoms: _250  and  _251
REMARK  106  A    between atoms: _257  and  _259
REMARK  107  A    between atoms: _259  and  _260
REMARK  108  A    between atoms: _259  and  _262
REMARK  109  A    between atoms: _262  and  _263
REMARK  110  A    between atoms: _269  and  _271
REMARK  111  A    between atoms: _271  and  _272
REMARK  112  A    between atoms: _271  and  _274
REMARK  113  A    between atoms: _274  and  _275
REMARK  114  A    between atoms: _278  and  _280
REMARK  115  A    between atoms: _280  and  _281
REMARK  116  A    between atoms: _280  and  _283
REMARK  117  A    between atoms: _283  and  _284
REMARK  118  A    between atoms: _286  and  _288
REMARK  119  A    between atoms: _288  and  _289
REMARK  120  A    between atoms: _288  and  _291
REMARK  121  A    between atoms: _291  and  _292
REMARK  122  A    between atoms: _302  and  _304
REMARK  123  A    between atoms: _304  and  _305
REMARK  124  A    between atoms: _307  and  _309
REMARK  125  A    between atoms: _309  and  _310
REMARK  126  A    between atoms: _309  and  _312
REMARK  127  A    between atoms: _312  and  _313
REMARK  128  A    between atoms: _316  and  _318
REMARK  129  A    between atoms: _318  and  _319
REMARK  130  A    between atoms: _318  and  _321
REMARK  131  A    between atoms: _321  and  _322
REMARK  132  A    between atoms: _325  and  _327
REMARK  133  A    between atoms: _327  and  _328
REMARK  134  A    between atoms: _330  and  _332
REMARK  135  A    between atoms: _332  and  _333
REMARK  136  A    between atoms: _332  and  _335
REMARK  137  A    between atoms: _335  and  _336
REMARK  138  A    between atoms: _339  and  _341
REMARK  139  A    between atoms: _341  and  _342
REMARK  140  A    between atoms: _345  and  _347
REMARK  141  A    between atoms: _347  and  _348
REMARK  142  A    between atoms: _347  and  _350
REMARK  143  A    between atoms: _350  and  _351
REMARK  144  A    between atoms: _354  and  _356
REMARK  145  A    between atoms: _356  and  _357
REMARK  146  A    between atoms: _360  and  _362
REMARK  147  A    between atoms: _362  and  _363
REMARK  148  A    between atoms: _362  and  _365
REMARK  149  A    between atoms: _365  and  _366
REMARK  150  A    between atoms: _366  and  _367
REMARK  151  A    between atoms: _367  and  _368
REMARK  152  A    between atoms: _377  and  _379
REMARK  153  A    between atoms: _379  and  _380
REMARK  154  A    between atoms: _379  and  _382
REMARK  155  A    between atoms: _382  and  _383
REMARK  156  A    between atoms: _386  and  _388
REMARK  157  A    between atoms: _388  and  _389
REMARK  158  A    between atoms: _388  and  _391
REMARK  159  A    between atoms: _391  and  _392
REMARK  160  A    between atoms: _397  and  _398
REMARK  161  A    between atoms: _400  and  _402
REMARK  162  A    between atoms: _402  and  _403
REMARK  163  A    between atoms: _402  and  _405
REMARK  164  A    between atoms: _405  and  _406
REMARK  165  A    between atoms: _411  and  _412
REMARK  166  A    between atoms: _414  and  _416
REMARK  167  A    between atoms: _416  and  _417
REMARK  168  A    between atoms: _416  and  _419
REMARK  169  A    between atoms: _419  and  _420
REMARK  170  A    between atoms: _420  and  _421
REMARK  171  A    between atoms: _421  and  _422
REMARK  172  A    between atoms: _422  and  _423
REMARK  173  A    between atoms: _427  and  _429
REMARK  174  A    between atoms: _429  and  _430
REMARK  175  A    between atoms: _429  and  _432
REMARK  176  A    between atoms: _432  and  _433
REMARK  177  A    between atoms: _436  and  _438
REMARK  178  A    between atoms: _438  and  _439
REMARK  179  A    between atoms: _438  and  _441
REMARK  180  A    between atoms: _444  and  _446
REMARK  181  A    between atoms: _446  and  _447
REMARK  182  A    between atoms: _446  and  _449
REMARK  183  A    between atoms: _449  and  _450
REMARK  184  A    between atoms: _453  and  _455
REMARK  185  A    between atoms: _455  and  _456
REMARK  186  A    between atoms: _455  and  _458
REMARK  187  A    between atoms: _458  and  _459
REMARK  188  A    between atoms: _461  and  _463
REMARK  189  A    between atoms: _463  and  _464
REMARK  190  A    between atoms: _466  and  _468
REMARK  191  A    between atoms: _468  and  _469
REMARK  192  A    between atoms: _468  and  _471
REMARK  193  A    between atoms: _471  and  _472
REMARK  194  A    between atoms: _475  and  _477
REMARK  195  A    between atoms: _477  and  _478
REMARK  196  A    between atoms: _477  and  _480
REMARK  197  A    between atoms: _480  and  _481
REMARK  198  A    between atoms: _484  and  _486
REMARK  199  A    between atoms: _486  and  _487
REMARK  200  A    between atoms: _486  and  _489
REMARK  201  A    between atoms: _489  and  _490
REMARK  202  A    between atoms: _495  and  _497
REMARK  203  A    between atoms: _497  and  _498
REMARK  204  A    between atoms: _497  and  _500
REMARK  205  A    between atoms: _500  and  _501
REMARK  206  A    between atoms: _501  and  _502
REMARK  207  A    between atoms: _502  and  _503
REMARK  208  A    between atoms: _512  and  _514
REMARK  209  A    between atoms: _514  and  _515
REMARK  210  A    between atoms: _514  and  _517
REMARK  211  A    between atoms: _517  and  _518
REMARK  212  A    between atoms: _518  and  _519
REMARK  213  A    between atoms: _519  and  _520
REMARK  214  A    between atoms: _529  and  _531
REMARK  215  A    between atoms: _531  and  _532
REMARK  216  A    between atoms: _531  and  _534
REMARK  217  A    between atoms: _534  and  _535
REMARK  218  A    between atoms: _537  and  _539
REMARK  219  A    between atoms: _539  and  _540
REMARK  220  A    between atoms: _539  and  _542
REMARK  221  A    between atoms: _542  and  _543
REMARK  222  A    between atoms: _543  and  _544
REMARK  223  A    between atoms: _549  and  _551
REMARK  224  A    between atoms: _551  and  _552
REMARK  225  A    between atoms: _551  and  _554
REMARK  226  A    between atoms: _554  and  _555
REMARK  227  A    between atoms: _557  and  _559
REMARK  228  A    between atoms: _559  and  _560
REMARK  229  A    between atoms: _559  and  _562
REMARK  230  A    between atoms: _562  and  _563
REMARK  231  A    between atoms: _565  and  _567
REMARK  232  A    between atoms: _567  and  _568
REMARK  233  A    between atoms: _567  and  _570
REMARK  234  A    between atoms: _570  and  _571
REMARK  235  A    between atoms: _574  and  _576
REMARK  236  A    between atoms: _576  and  _577
REMARK  237  A    between atoms: _576  and  _579
REMARK  238  A    between atoms: _579  and  _580
REMARK  239  A    between atoms: _583  and  _585
REMARK  240  A    between atoms: _585  and  _586
REMARK  241  A    between atoms: _585  and  _588
REMARK  242  A    between atoms: _591  and  _593
REMARK  243  A    between atoms: _593  and  _594
REMARK  244  A    between atoms: _596  and  _598
REMARK  245  A    between atoms: _598  and  _599
REMARK  246  A    between atoms: _602  and  _604
REMARK  247  A    between atoms: _604  and  _605
REMARK  248  A    between atoms: _604  and  _607
REMARK                            x       y       z     vdW  Elec       q    Type
REMARK                         _______ _______ _______ _____ _____    ______ ____
ROOT
ATOM      1  O   HOH     1      19.347  19.274  27.940  0.00  0.00    +0.000 OA
ENDROOT
TORSDOF 0
REMARK  Name = ../refined-set-2016/2qmg/2qmg_pocket.pdb
REMARK  248 active torsions:
REMARK  status: ('A' for Active; 'I' for Inactive)
REMARK    1  A    between atoms: _1  and  _3
REMARK    2  A    between atoms: _3  and  _4
REMARK    3  A    between atoms: _3  and  _6
REMARK    4  A    between atoms: _6  and  _7
REMARK    5  A    between atoms: _7  and  _8
REMARK    6  A    between atoms: _8  and  _9
REMARK    7  A    between atoms: _9  and  _10
REMARK    8  A    between atoms: _14  and  _16
REMARK    9  A    between atoms: _16  and  _17
REMARK   10  A    between atoms: _16  and  _19
REMARK   11  A    between atoms: _19  and  _20
REMARK   12  A    between atoms: _22  and  _24
REMARK   13  A    between atoms: _24  and  _25
REMARK   14  A    between atoms: _27  and  _29
REMARK   15  A    between atoms: _29  and  _30
REMARK   16  A    between atoms: _29  and  _32
REMARK   17  A    between atoms: _32  and  _33
REMARK   18  A    between atoms: _33  and  _34
REMARK   19  A    between atoms: _39  and  _41
REMARK   20  A    between atoms: _41  and  _42
REMARK   21  A    between atoms: _44  and  _46
REMARK   22  A    between atoms: _46  and  _47
REMARK   23  A    between atoms: _46  and  _49
REMARK   24  A    between atoms: _49  and  _50
REMARK   25  A    between atoms: _55  and  _56
REMARK   26  A    between atoms: _58  and  _60
REMARK   27  A    between atoms: _60  and  _61
REMARK   28  A    between atoms: _60  and  _63
REMARK   29  A    between atoms: _63  and  _64
REMARK   30  A    between atoms: _67  and  _69
REMARK   31  A    between atoms: _69  and  _70
REMARK   32  A    between atoms: _69  and  _72
REMARK   33  A    between atoms: _75  and  _77
REMARK   34  A    between atoms: _77  and  _78
REMARK   35  A    between atoms: _77  and  _80
REMARK   36  A    between atoms: _80  and  _81
REMARK   37  A    between atoms: _84  and  _86
REMARK   38  A    between atoms: _86  and  _87
REMARK   39  A    between atoms: _86  and  _89
REMARK   40  A    between atoms: _89  and  _90
REMARK   41  A    between atoms: _93  and  _95
REMARK   42  A    between atoms: _95  and  _96
REMARK   43  A    between atoms: _98  and  _100
REMARK   44  A    between atoms: _100  and  _101
REMARK   45  A    between atoms: _100  and  _103
REMARK   46  A    between atoms: _103  and  _104
REMARK   47  A    between atoms: _106  and  _108
REMARK   48  A    between atoms: _108  and  _109
REMARK   49  A    between atoms: _108  and  _111
REMARK   50  A    between atoms: _111  and  _112
REMARK   51  A    between atoms: _114  and  _116
REMARK   52  A    between atoms: _116  and  _117
REMARK   53  A    between atoms: _116  and  _119
REMARK   54  A    between atoms: _119  and  _120
REMARK   55  A    between atoms: _125  and  _127
REMARK   56  A    between atoms: _127  and  _128
REMARK   57  A    between atoms: _127  and  _130
REMARK   58  A    between atoms: _130  and  _131
REMARK   59  A    between atoms: _136  and  _137
REMARK   60  A    between atoms: _139  and  _141
REMARK   61  A    between atoms: _141  and  _142
REMARK   62  A    between atoms: _141  and  _144
REMARK   63  A    between atoms: _148  and  _149
REMARK   64  A    between atoms: _154  and  _156
REMARK   65  A    between atoms: _156  and  _157
REMARK   66  A    between atoms: _156  and  _159
REMARK   67  A    between atoms: _159  and  _160
REMARK   68  A    between atoms: _165  and  _166
REMARK   69  A    between atoms: _168  and  _170
REMARK   70  A    between atoms: _170  and  _171
REMARK   71  A    between atoms: _170  and  _173
REMARK   72  A    between atoms: _173  and  _174
REMARK   73  A    between atoms: _177  and  _179
REMARK   74  A    between atoms: _179  and  _180
REMARK   75  A    between atoms: _179  and  _182
REMARK   76  A    between atoms: _182  and  _183
REMARK   77  A    between atoms: _183  and  _184
REMARK   78  A    between atoms: _189  and  _191
REMARK   79  A    between atoms: _191  and  _192
REMARK   80  A    between atoms: _194  and  _196
REMARK   81  A    between atoms: _196  and  _197
REMARK   82  A    between atoms: _196  and  _199
REMARK   83  A    between atoms: _199  and  _200
REMARK   84  A    between atoms: _200  and  _201
REMARK   85  A    between atoms: _201  and  _202
REMARK   86  A    between atoms: _202  and  _203
REMARK   87  A    between atoms: _207  and  _209
REMARK   88  A    between atoms: _209  and  _210
REMARK   89  A    between atoms: _209  and  _212
REMARK   90  A    between atoms: _212  and  _213
REMARK   91  A    between atoms: _223  and  _225
REMARK   92  A    between atoms: _225  and  _226
REMARK   93  A    between atoms: _225  and  _228
REMARK   94  A    between atoms: _228  and  _229
REMARK   95  A    between atoms: _232  and  _234
REMARK   96  A    between atoms: _234  and  _235
REMARK   97  A    between atoms: _234  and  _237
REMARK   98  A    between atoms: _237  and  _238
REMARK   99  A    between atoms: _238  and  _239
REMARK  100  A    between atoms: _239  and  _240
REMARK  101  A    between atoms: _240  and  _241
REMARK  102  A    between atoms: _245  and  _247
REMARK  103  A    between atoms: _247  and  _248
REMARK  104  A    between atoms: _247  and  _250
REMARK  105  A    between atoms: _250  and  _251
REMARK  106  A    between atoms: _257  and  _259
REMARK  107  A    between atoms: _259  and  _260
REMARK  108  A    between atoms: _259  and  _262
REMARK  109  A    between atoms: _262  and  _263
REMARK  110  A    between atoms: _269  and  _271
REMARK  111  A    between atoms: _271  and  _272
REMARK  112  A    between atoms: _271  and  _274
REMARK  113  A    between atoms: _274  and  _275
REMARK  114  A    between atoms: _278  and  _280
REMARK  115  A    between atoms: _280  and  _281
REMARK  116  A    between atoms: _280  and  _283
REMARK  117  A    between atoms: _283  and  _284
REMARK  118  A    between atoms: _286  and  _288
REMARK  119  A    between atoms: _288  and  _289
REMARK  120  A    between atoms: _288  and  _291
REMARK  121  A    between atoms: _291  and  _292
REMARK  122  A    between atoms: _302  and  _304
REMARK  123  A    between atoms: _304  and  _305
REMARK  124  A    between atoms: _307  and  _309
REMARK  125  A    between atoms: _309  and  _310
REMARK  126  A    between atoms: _309  and  _312
REMARK  127  A    between atoms: _312  and  _313
REMARK  128  A    between atoms: _316  and  _318
REMARK  129  A    between atoms: _318  and  _319
REMARK  130  A    between atoms: _318  and  _321
REMARK  131  A    between atoms: _321  and  _322
REMARK  132  A    between atoms: _325  and  _327
REMARK  133  A    between atoms: _327  and  _328
REMARK  134  A    between atoms: _330  and  _332
REMARK  135  A    between atoms: _332  and  _333
REMARK  136  A    between atoms: _332  and  _335
REMARK  137  A    between atoms: _335  and  _336
REMARK  138  A    between atoms: _339  and  _341
REMARK  139  A    between atoms: _341  and  _342
REMARK  140  A    between atoms: _345  and  _347
REMARK  141  A    between atoms: _347  and  _348
REMARK  142  A    between atoms: _347  and  _350
REMARK  143  A    between atoms: _350  and  _351
REMARK  144  A    between atoms: _354  and  _356
REMARK  145  A    between atoms: _356  and  _357
REMARK  146  A    between atoms: _360  and  _362
REMARK  147  A    between atoms: _362  and  _363
REMARK  148  A    between atoms: _362  and  _365
REMARK  149  A    between atoms: _365  and  _366
REMARK  150  A    between atoms: _366  and  _367
REMARK  151  A    between atoms: _367  and  _368
REMARK  152  A    between atoms: _377  and  _379
REMARK  153  A    between atoms: _379  and  _380
REMARK  154  A    between atoms: _379  and  _382
REMARK  155  A    between atoms: _382  and  _383
REMARK  156  A    between atoms: _386  and  _388
REMARK  157  A    between atoms: _388  and  _389
REMARK  158  A    between atoms: _388  and  _391
REMARK  159  A    between atoms: _391  and  _392
REMARK  160  A    between atoms: _397  and  _398
REMARK  161  A    between atoms: _400  and  _402
REMARK  162  A    between atoms: _402  and  _403
REMARK  163  A    between atoms: _402  and  _405
REMARK  164  A    between atoms: _405  and  _406
REMARK  165  A    between atoms: _411  and  _412
REMARK  166  A    between atoms: _414  and  _416
REMARK  167  A    between atoms: _416  and  _417
REMARK  168  A    between atoms: _416  and  _419
REMARK  169  A    between atoms: _419  and  _420
REMARK  170  A    between atoms: _420  and  _421
REMARK  171  A    between atoms: _421  and  _422
REMARK  172  A    between atoms: _422  and  _423
REMARK  173  A    between atoms: _427  and  _429
REMARK  174  A    between atoms: _429  and  _430
REMARK  175  A    between atoms: _429  and  _432
REMARK  176  A    between atoms: _432  and  _433
REMARK  177  A    between atoms: _436  and  _438
REMARK  178  A    between atoms: _438  and  _439
REMARK  179  A    between atoms: _438  and  _441
REMARK  180  A    between atoms: _444  and  _446
REMARK  181  A    between atoms: _446  and  _447
REMARK  182  A    between atoms: _446  and  _449
REMARK  183  A    between atoms: _449  and  _450
REMARK  184  A    between atoms: _453  and  _455
REMARK  185  A    between atoms: _455  and  _456
REMARK  186  A    between atoms: _455  and  _458
REMARK  187  A    between atoms: _458  and  _459
REMARK  188  A    between atoms: _461  and  _463
REMARK  189  A    between atoms: _463  and  _464
REMARK  190  A    between atoms: _466  and  _468
REMARK  191  A    between atoms: _468  and  _469
REMARK  192  A    between atoms: _468  and  _471
REMARK  193  A    between atoms: _471  and  _472
REMARK  194  A    between atoms: _475  and  _477
REMARK  195  A    between atoms: _477  and  _478
REMARK  196  A    between atoms: _477  and  _480
REMARK  197  A    between atoms: _480  and  _481
REMARK  198  A    between atoms: _484  and  _486
REMARK  199  A    between atoms: _486  and  _487
REMARK  200  A    between atoms: _486  and  _489
REMARK  201  A    between atoms: _489  and  _490
REMARK  202  A    between atoms: _495  and  _497
REMARK  203  A    between atoms: _497  and  _498
REMARK  204  A    between atoms: _497  and  _500
REMARK  205  A    between atoms: _500  and  _501
REMARK  206  A    between atoms: _501  and  _502
REMARK  207  A    between atoms: _502  and  _503
REMARK  208  A    between atoms: _512  and  _514
REMARK  209  A    between atoms: _514  and  _515
REMARK  210  A    between atoms: _514  and  _517
REMARK  211  A    between atoms: _517  and  _518
REMARK  212  A    between atoms: _518  and  _519
REMARK  213  A    between atoms: _519  and  _520
REMARK  214  A    between atoms: _529  and  _531
REMARK  215  A    between atoms: _531  and  _532
REMARK  216  A    between atoms: _531  and  _534
REMARK  217  A    between atoms: _534  and  _535
REMARK  218  A    between atoms: _537  and  _539
REMARK  219  A    between atoms: _539  and  _540
REMARK  220  A    between atoms: _539  and  _542
REMARK  221  A    between atoms: _542  and  _543
REMARK  222  A    between atoms: _543  and  _544
REMARK  223  A    between atoms: _549  and  _551
REMARK  224  A    between atoms: _551  and  _552
REMARK  225  A    between atoms: _551  and  _554
REMARK  226  A    between atoms: _554  and  _555
REMARK  227  A    between atoms: _557  and  _559
REMARK  228  A    between atoms: _559  and  _560
REMARK  229  A    between atoms: _559  and  _562
REMARK  230  A    between atoms: _562  and  _563
REMARK  231  A    between atoms: _565  and  _567
REMARK  232  A    between atoms: _567  and  _568
REMARK  233  A    between atoms: _567  and  _570
REMARK  234  A    between atoms: _570  and  _571
REMARK  235  A    between atoms: _574  and  _576
REMARK  236  A    between atoms: _576  and  _577
REMARK  237  A    between atoms: _576  and  _579
REMARK  238  A    between atoms: _579  and  _580
REMARK  239  A    between atoms: _583  and  _585
REMARK  240  A    between atoms: _585  and  _586
REMARK  241  A    between atoms: _585  and  _588
REMARK  242  A    between atoms: _591  and  _593
REMARK  243  A    between atoms: _593  and  _594
REMARK  244  A    between atoms: _596  and  _598
REMARK  245  A    between atoms: _598  and  _599
REMARK  246  A    between atoms: _602  and  _604
REMARK  247  A    between atoms: _604  and  _605
REMARK  248  A    between atoms: _604  and  _607
REMARK                            x       y       z     vdW  Elec       q    Type
REMARK                         _______ _______ _______ _____ _____    ______ ____
ROOT
ATOM      1  O   HOH     1      15.323  16.365  23.535  0.00  0.00    +0.000 OA
ENDROOT
TORSDOF 0
REMARK  Name = ../refined-set-2016/2qmg/2qmg_pocket.pdb
REMARK  248 active torsions:
REMARK  status: ('A' for Active; 'I' for Inactive)
REMARK    1  A    between atoms: _1  and  _3
REMARK    2  A    between atoms: _3  and  _4
REMARK    3  A    between atoms: _3  and  _6
REMARK    4  A    between atoms: _6  and  _7
REMARK    5  A    between atoms: _7  and  _8
REMARK    6  A    between atoms: _8  and  _9
REMARK    7  A    between atoms: _9  and  _10
REMARK    8  A    between atoms: _14  and  _16
REMARK    9  A    between atoms: _16  and  _17
REMARK   10  A    between atoms: _16  and  _19
REMARK   11  A    between atoms: _19  and  _20
REMARK   12  A    between atoms: _22  and  _24
REMARK   13  A    between atoms: _24  and  _25
REMARK   14  A    between atoms: _27  and  _29
REMARK   15  A    between atoms: _29  and  _30
REMARK   16  A    between atoms: _29  and  _32
REMARK   17  A    between atoms: _32  and  _33
REMARK   18  A    between atoms: _33  and  _34
REMARK   19  A    between atoms: _39  and  _41
REMARK   20  A    between atoms: _41  and  _42
REMARK   21  A    between atoms: _44  and  _46
REMARK   22  A    between atoms: _46  and  _47
REMARK   23  A    between atoms: _46  and  _49
REMARK   24  A    between atoms: _49  and  _50
REMARK   25  A    between atoms: _55  and  _56
REMARK   26  A    between atoms: _58  and  _60
REMARK   27  A    between atoms: _60  and  _61
REMARK   28  A    between atoms: _60  and  _63
REMARK   29  A    between atoms: _63  and  _64
REMARK   30  A    between atoms: _67  and  _69
REMARK   31  A    between atoms: _69  and  _70
REMARK   32  A    between atoms: _69  and  _72
REMARK   33  A    between atoms: _75  and  _77
REMARK   34  A    between atoms: _77  and  _78
REMARK   35  A    between atoms: _77  and  _80
REMARK   36  A    between atoms: _80  and  _81
REMARK   37  A    between atoms: _84  and  _86
REMARK   38  A    between atoms: _86  and  _87
REMARK   39  A    between atoms: _86  and  _89
REMARK   40  A    between atoms: _89  and  _90
REMARK   41  A    between atoms: _93  and  _95
REMARK   42  A    between atoms: _95  and  _96
REMARK   43  A    between atoms: _98  and  _100
REMARK   44  A    between atoms: _100  and  _101
REMARK   45  A    between atoms: _100  and  _103
REMARK   46  A    between atoms: _103  and  _104
REMARK   47  A    between atoms: _106  and  _108
REMARK   48  A    between atoms: _108  and  _109
REMARK   49  A    between atoms: _108  and  _111
REMARK   50  A    between atoms: _111  and  _112
REMARK   51  A    between atoms: _114  and  _116
REMARK   52  A    between atoms: _116  and  _117
REMARK   53  A    between atoms: _116  and  _119
REMARK   54  A    between atoms: _119  and  _120
REMARK   55  A    between atoms: _125  and  _127
REMARK   56  A    between atoms: _127  and  _128
REMARK   57  A    between atoms: _127  and  _130
REMARK   58  A    between atoms: _130  and  _131
REMARK   59  A    between atoms: _136  and  _137
REMARK   60  A    between atoms: _139  and  _141
REMARK   61  A    between atoms: _141  and  _142
REMARK   62  A    between atoms: _141  and  _144
REMARK   63  A    between atoms: _148  and  _149
REMARK   64  A    between atoms: _154  and  _156
REMARK   65  A    between atoms: _156  and  _157
REMARK   66  A    between atoms: _156  and  _159
REMARK   67  A    between atoms: _159  and  _160
REMARK   68  A    between atoms: _165  and  _166
REMARK   69  A    between atoms: _168  and  _170
REMARK   70  A    between atoms: _170  and  _171
REMARK   71  A    between atoms: _170  and  _173
REMARK   72  A    between atoms: _173  and  _174
REMARK   73  A    between atoms: _177  and  _179
REMARK   74  A    between atoms: _179  and  _180
REMARK   75  A    between atoms: _179  and  _182
REMARK   76  A    between atoms: _182  and  _183
REMARK   77  A    between atoms: _183  and  _184
REMARK   78  A    between atoms: _189  and  _191
REMARK   79  A    between atoms: _191  and  _192
REMARK   80  A    between atoms: _194  and  _196
REMARK   81  A    between atoms: _196  and  _197
REMARK   82  A    between atoms: _196  and  _199
REMARK   83  A    between atoms: _199  and  _200
REMARK   84  A    between atoms: _200  and  _201
REMARK   85  A    between atoms: _201  and  _202
REMARK   86  A    between atoms: _202  and  _203
REMARK   87  A    between atoms: _207  and  _209
REMARK   88  A    between atoms: _209  and  _210
REMARK   89  A    between atoms: _209  and  _212
REMARK   90  A    between atoms: _212  and  _213
REMARK   91  A    between atoms: _223  and  _225
REMARK   92  A    between atoms: _225  and  _226
REMARK   93  A    between atoms: _225  and  _228
REMARK   94  A    between atoms: _228  and  _229
REMARK   95  A    between atoms: _232  and  _234
REMARK   96  A    between atoms: _234  and  _235
REMARK   97  A    between atoms: _234  and  _237
REMARK   98  A    between atoms: _237  and  _238
REMARK   99  A    between atoms: _238  and  _239
REMARK  100  A    between atoms: _239  and  _240
REMARK  101  A    between atoms: _240  and  _241
REMARK  102  A    between atoms: _245  and  _247
REMARK  103  A    between atoms: _247  and  _248
REMARK  104  A    between atoms: _247  and  _250
REMARK  105  A    between atoms: _250  and  _251
REMARK  106  A    between atoms: _257  and  _259
REMARK  107  A    between atoms: _259  and  _260
REMARK  108  A    between atoms: _259  and  _262
REMARK  109  A    between atoms: _262  and  _263
REMARK  110  A    between atoms: _269  and  _271
REMARK  111  A    between atoms: _271  and  _272
REMARK  112  A    between atoms: _271  and  _274
REMARK  113  A    between atoms: _274  and  _275
REMARK  114  A    between atoms: _278  and  _280
REMARK  115  A    between atoms: _280  and  _281
REMARK  116  A    between atoms: _280  and  _283
REMARK  117  A    between atoms: _283  and  _284
REMARK  118  A    between atoms: _286  and  _288
REMARK  119  A    between atoms: _288  and  _289
REMARK  120  A    between atoms: _288  and  _291
REMARK  121  A    between atoms: _291  and  _292
REMARK  122  A    between atoms: _302  and  _304
REMARK  123  A    between atoms: _304  and  _305
REMARK  124  A    between atoms: _307  and  _309
REMARK  125  A    between atoms: _309  and  _310
REMARK  126  A    between atoms: _309  and  _312
REMARK  127  A    between atoms: _312  and  _313
REMARK  128  A    between atoms: _316  and  _318
REMARK  129  A    between atoms: _318  and  _319
REMARK  130  A    between atoms: _318  and  _321
REMARK  131  A    between atoms: _321  and  _322
REMARK  132  A    between atoms: _325  and  _327
REMARK  133  A    between atoms: _327  and  _328
REMARK  134  A    between atoms: _330  and  _332
REMARK  135  A    between atoms: _332  and  _333
REMARK  136  A    between atoms: _332  and  _335
REMARK  137  A    between atoms: _335  and  _336
REMARK  138  A    between atoms: _339  and  _341
REMARK  139  A    between atoms: _341  and  _342
REMARK  140  A    between atoms: _345  and  _347
REMARK  141  A    between atoms: _347  and  _348
REMARK  142  A    between atoms: _347  and  _350
REMARK  143  A    between atoms: _350  and  _351
REMARK  144  A    between atoms: _354  and  _356
REMARK  145  A    between atoms: _356  and  _357
REMARK  146  A    between atoms: _360  and  _362
REMARK  147  A    between atoms: _362  and  _363
REMARK  148  A    between atoms: _362  and  _365
REMARK  149  A    between atoms: _365  and  _366
REMARK  150  A    between atoms: _366  and  _367
REMARK  151  A    between atoms: _367  and  _368
REMARK  152  A    between atoms: _377  and  _379
REMARK  153  A    between atoms: _379  and  _380
REMARK  154  A    between atoms: _379  and  _382
REMARK  155  A    between atoms: _382  and  _383
REMARK  156  A    between atoms: _386  and  _388
REMARK  157  A    between atoms: _388  and  _389
REMARK  158  A    between atoms: _388  and  _391
REMARK  159  A    between atoms: _391  and  _392
REMARK  160  A    between atoms: _397  and  _398
REMARK  161  A    between atoms: _400  and  _402
REMARK  162  A    between atoms: _402  and  _403
REMARK  163  A    between atoms: _402  and  _405
REMARK  164  A    between atoms: _405  and  _406
REMARK  165  A    between atoms: _411  and  _412
REMARK  166  A    between atoms: _414  and  _416
REMARK  167  A    between atoms: _416  and  _417
REMARK  168  A    between atoms: _416  and  _419
REMARK  169  A    between atoms: _419  and  _420
REMARK  170  A    between atoms: _420  and  _421
REMARK  171  A    between atoms: _421  and  _422
REMARK  172  A    between atoms: _422  and  _423
REMARK  173  A    between atoms: _427  and  _429
REMARK  174  A    between atoms: _429  and  _430
REMARK  175  A    between atoms: _429  and  _432
REMARK  176  A    between atoms: _432  and  _433
REMARK  177  A    between atoms: _436  and  _438
REMARK  178  A    between atoms: _438  and  _439
REMARK  179  A    between atoms: _438  and  _441
REMARK  180  A    between atoms: _444  and  _446
REMARK  181  A    between atoms: _446  and  _447
REMARK  182  A    between atoms: _446  and  _449
REMARK  183  A    between atoms: _449  and  _450
REMARK  184  A    between atoms: _453  and  _455
REMARK  185  A    between atoms: _455  and  _456
REMARK  186  A    between atoms: _455  and  _458
REMARK  187  A    between atoms: _458  and  _459
REMARK  188  A    between atoms: _461  and  _463
REMARK  189  A    between atoms: _463  and  _464
REMARK  190  A    between atoms: _466  and  _468
REMARK  191  A    between atoms: _468  and  _469
REMARK  192  A    between atoms: _468  and  _471
REMARK  193  A    between atoms: _471  and  _472
REMARK  194  A    between atoms: _475  and  _477
REMARK  195  A    between atoms: _477  and  _478
REMARK  196  A    between atoms: _477  and  _480
REMARK  197  A    between atoms: _480  and  _481
REMARK  198  A    between atoms: _484  and  _486
REMARK  199  A    between atoms: _486  and  _487
REMARK  200  A    between atoms: _486  and  _489
REMARK  201  A    between atoms: _489  and  _490
REMARK  202  A    between atoms: _495  and  _497
REMARK  203  A    between atoms: _497  and  _498
REMARK  204  A    between atoms: _497  and  _500
REMARK  205  A    between atoms: _500  and  _501
REMARK  206  A    between atoms: _501  and  _502
REMARK  207  A    between atoms: _502  and  _503
REMARK  208  A    between atoms: _512  and  _514
REMARK  209  A    between atoms: _514  and  _515
REMARK  210  A    between atoms: _514  and  _517
REMARK  211  A    between atoms: _517  and  _518
REMARK  212  A    between atoms: _518  and  _519
REMARK  213  A    between atoms: _519  and  _520
REMARK  214  A    between atoms: _529  and  _531
REMARK  215  A    between atoms: _531  and  _532
REMARK  216  A    between atoms: _531  and  _534
REMARK  217  A    between atoms: _534  and  _535
REMARK  218  A    between atoms: _537  and  _539
REMARK  219  A    between atoms: _539  and  _540
REMARK  220  A    between atoms: _539  and  _542
REMARK  221  A    between atoms: _542  and  _543
REMARK  222  A    between atoms: _543  and  _544
REMARK  223  A    between atoms: _549  and  _551
REMARK  224  A    between atoms: _551  and  _552
REMARK  225  A    between atoms: _551  and  _554
REMARK  226  A    between atoms: _554  and  _555
REMARK  227  A    between atoms: _557  and  _559
REMARK  228  A    between atoms: _559  and  _560
REMARK  229  A    between atoms: _559  and  _562
REMARK  230  A    between atoms: _562  and  _563
REMARK  231  A    between atoms: _565  and  _567
REMARK  232  A    between atoms: _567  and  _568
REMARK  233  A    between atoms: _567  and  _570
REMARK  234  A    between atoms: _570  and  _571
REMARK  235  A    between atoms: _574  and  _576
REMARK  236  A    between atoms: _576  and  _577
REMARK  237  A    between atoms: _576  and  _579
REMARK  238  A    between atoms: _579  and  _580
REMARK  239  A    between atoms: _583  and  _585
REMARK  240  A    between atoms: _585  and  _586
REMARK  241  A    between atoms: _585  and  _588
REMARK  242  A    between atoms: _591  and  _593
REMARK  243  A    between atoms: _593  and  _594
REMARK  244  A    between atoms: _596  and  _598
REMARK  245  A    between atoms: _598  and  _599
REMARK  246  A    between atoms: _602  and  _604
REMARK  247  A    between atoms: _604  and  _605
REMARK  248  A    between atoms: _604  and  _607
REMARK                            x       y       z     vdW  Elec       q    Type
REMARK                         _______ _______ _______ _____ _____    ______ ____
ROOT
ATOM      1  O   HOH     1      16.672  18.127  24.684  0.00  0.00    +0.000 OA
ENDROOT
TORSDOF 0
REMARK  Name = ../refined-set-2016/2qmg/2qmg_pocket.pdb
REMARK  248 active torsions:
REMARK  status: ('A' for Active; 'I' for Inactive)
REMARK    1  A    between atoms: _1  and  _3
REMARK    2  A    between atoms: _3  and  _4
REMARK    3  A    between atoms: _3  and  _6
REMARK    4  A    between atoms: _6  and  _7
REMARK    5  A    between atoms: _7  and  _8
REMARK    6  A    between atoms: _8  and  _9
REMARK    7  A    between atoms: _9  and  _10
REMARK    8  A    between atoms: _14  and  _16
REMARK    9  A    between atoms: _16  and  _17
REMARK   10  A    between atoms: _16  and  _19
REMARK   11  A    between atoms: _19  and  _20
REMARK   12  A    between atoms: _22  and  _24
REMARK   13  A    between atoms: _24  and  _25
REMARK   14  A    between atoms: _27  and  _29
REMARK   15  A    between atoms: _29  and  _30
REMARK   16  A    between atoms: _29  and  _32
REMARK   17  A    between atoms: _32  and  _33
REMARK   18  A    between atoms: _33  and  _34
REMARK   19  A    between atoms: _39  and  _41
REMARK   20  A    between atoms: _41  and  _42
REMARK   21  A    between atoms: _44  and  _46
REMARK   22  A    between atoms: _46  and  _47
REMARK   23  A    between atoms: _46  and  _49
REMARK   24  A    between atoms: _49  and  _50
REMARK   25  A    between atoms: _55  and  _56
REMARK   26  A    between atoms: _58  and  _60
REMARK   27  A    between atoms: _60  and  _61
REMARK   28  A    between atoms: _60  and  _63
REMARK   29  A    between atoms: _63  and  _64
REMARK   30  A    between atoms: _67  and  _69
REMARK   31  A    between atoms: _69  and  _70
REMARK   32  A    between atoms: _69  and  _72
REMARK   33  A    between atoms: _75  and  _77
REMARK   34  A    between atoms: _77  and  _78
REMARK   35  A    between atoms: _77  and  _80
REMARK   36  A    between atoms: _80  and  _81
REMARK   37  A    between atoms: _84  and  _86
REMARK   38  A    between atoms: _86  and  _87
REMARK   39  A    between atoms: _86  and  _89
REMARK   40  A    between atoms: _89  and  _90
REMARK   41  A    between atoms: _93  and  _95
REMARK   42  A    between atoms: _95  and  _96
REMARK   43  A    between atoms: _98  and  _100
REMARK   44  A    between atoms: _100  and  _101
REMARK   45  A    between atoms: _100  and  _103
REMARK   46  A    between atoms: _103  and  _104
REMARK   47  A    between atoms: _106  and  _108
REMARK   48  A    between atoms: _108  and  _109
REMARK   49  A    between atoms: _108  and  _111
REMARK   50  A    between atoms: _111  and  _112
REMARK   51  A    between atoms: _114  and  _116
REMARK   52  A    between atoms: _116  and  _117
REMARK   53  A    between atoms: _116  and  _119
REMARK   54  A    between atoms: _119  and  _120
REMARK   55  A    between atoms: _125  and  _127
REMARK   56  A    between atoms: _127  and  _128
REMARK   57  A    between atoms: _127  and  _130
REMARK   58  A    between atoms: _130  and  _131
REMARK   59  A    between atoms: _136  and  _137
REMARK   60  A    between atoms: _139  and  _141
REMARK   61  A    between atoms: _141  and  _142
REMARK   62  A    between atoms: _141  and  _144
REMARK   63  A    between atoms: _148  and  _149
REMARK   64  A    between atoms: _154  and  _156
REMARK   65  A    between atoms: _156  and  _157
REMARK   66  A    between atoms: _156  and  _159
REMARK   67  A    between atoms: _159  and  _160
REMARK   68  A    between atoms: _165  and  _166
REMARK   69  A    between atoms: _168  and  _170
REMARK   70  A    between atoms: _170  and  _171
REMARK   71  A    between atoms: _170  and  _173
REMARK   72  A    between atoms: _173  and  _174
REMARK   73  A    between atoms: _177  and  _179
REMARK   74  A    between atoms: _179  and  _180
REMARK   75  A    between atoms: _179  and  _182
REMARK   76  A    between atoms: _182  and  _183
REMARK   77  A    between atoms: _183  and  _184
REMARK   78  A    between atoms: _189  and  _191
REMARK   79  A    between atoms: _191  and  _192
REMARK   80  A    between atoms: _194  and  _196
REMARK   81  A    between atoms: _196  and  _197
REMARK   82  A    between atoms: _196  and  _199
REMARK   83  A    between atoms: _199  and  _200
REMARK   84  A    between atoms: _200  and  _201
REMARK   85  A    between atoms: _201  and  _202
REMARK   86  A    between atoms: _202  and  _203
REMARK   87  A    between atoms: _207  and  _209
REMARK   88  A    between atoms: _209  and  _210
REMARK   89  A    between atoms: _209  and  _212
REMARK   90  A    between atoms: _212  and  _213
REMARK   91  A    between atoms: _223  and  _225
REMARK   92  A    between atoms: _225  and  _226
REMARK   93  A    between atoms: _225  and  _228
REMARK   94  A    between atoms: _228  and  _229
REMARK   95  A    between atoms: _232  and  _234
REMARK   96  A    between atoms: _234  and  _235
REMARK   97  A    between atoms: _234  and  _237
REMARK   98  A    between atoms: _237  and  _238
REMARK   99  A    between atoms: _238  and  _239
REMARK  100  A    between atoms: _239  and  _240
REMARK  101  A    between atoms: _240  and  _241
REMARK  102  A    between atoms: _245  and  _247
REMARK  103  A    between atoms: _247  and  _248
REMARK  104  A    between atoms: _247  and  _250
REMARK  105  A    between atoms: _250  and  _251
REMARK  106  A    between atoms: _257  and  _259
REMARK  107  A    between atoms: _259  and  _260
REMARK  108  A    between atoms: _259  and  _262
REMARK  109  A    between atoms: _262  and  _263
REMARK  110  A    between atoms: _269  and  _271
REMARK  111  A    between atoms: _271  and  _272
REMARK  112  A    between atoms: _271  and  _274
REMARK  113  A    between atoms: _274  and  _275
REMARK  114  A    between atoms: _278  and  _280
REMARK  115  A    between atoms: _280  and  _281
REMARK  116  A    between atoms: _280  and  _283
REMARK  117  A    between atoms: _283  and  _284
REMARK  118  A    between atoms: _286  and  _288
REMARK  119  A    between atoms: _288  and  _289
REMARK  120  A    between atoms: _288  and  _291
REMARK  121  A    between atoms: _291  and  _292
REMARK  122  A    between atoms: _302  and  _304
REMARK  123  A    between atoms: _304  and  _305
REMARK  124  A    between atoms: _307  and  _309
REMARK  125  A    between atoms: _309  and  _310
REMARK  126  A    between atoms: _309  and  _312
REMARK  127  A    between atoms: _312  and  _313
REMARK  128  A    between atoms: _316  and  _318
REMARK  129  A    between atoms: _318  and  _319
REMARK  130  A    between atoms: _318  and  _321
REMARK  131  A    between atoms: _321  and  _322
REMARK  132  A    between atoms: _325  and  _327
REMARK  133  A    between atoms: _327  and  _328
REMARK  134  A    between atoms: _330  and  _332
REMARK  135  A    between atoms: _332  and  _333
REMARK  136  A    between atoms: _332  and  _335
REMARK  137  A    between atoms: _335  and  _336
REMARK  138  A    between atoms: _339  and  _341
REMARK  139  A    between atoms: _341  and  _342
REMARK  140  A    between atoms: _345  and  _347
REMARK  141  A    between atoms: _347  and  _348
REMARK  142  A    between atoms: _347  and  _350
REMARK  143  A    between atoms: _350  and  _351
REMARK  144  A    between atoms: _354  and  _356
REMARK  145  A    between atoms: _356  and  _357
REMARK  146  A    between atoms: _360  and  _362
REMARK  147  A    between atoms: _362  and  _363
REMARK  148  A    between atoms: _362  and  _365
REMARK  149  A    between atoms: _365  and  _366
REMARK  150  A    between atoms: _366  and  _367
REMARK  151  A    between atoms: _367  and  _368
REMARK  152  A    between atoms: _377  and  _379
REMARK  153  A    between atoms: _379  and  _380
REMARK  154  A    between atoms: _379  and  _382
REMARK  155  A    between atoms: _382  and  _383
REMARK  156  A    between atoms: _386  and  _388
REMARK  157  A    between atoms: _388  and  _389
REMARK  158  A    between atoms: _388  and  _391
REMARK  159  A    between atoms: _391  and  _392
REMARK  160  A    between atoms: _397  and  _398
REMARK  161  A    between atoms: _400  and  _402
REMARK  162  A    between atoms: _402  and  _403
REMARK  163  A    between atoms: _402  and  _405
REMARK  164  A    between atoms: _405  and  _406
REMARK  165  A    between atoms: _411  and  _412
REMARK  166  A    between atoms: _414  and  _416
REMARK  167  A    between atoms: _416  and  _417
REMARK  168  A    between atoms: _416  and  _419
REMARK  169  A    between atoms: _419  and  _420
REMARK  170  A    between atoms: _420  and  _421
REMARK  171  A    between atoms: _421  and  _422
REMARK  172  A    between atoms: _422  and  _423
REMARK  173  A    between atoms: _427  and  _429
REMARK  174  A    between atoms: _429  and  _430
REMARK  175  A    between atoms: _429  and  _432
REMARK  176  A    between atoms: _432  and  _433
REMARK  177  A    between atoms: _436  and  _438
REMARK  178  A    between atoms: _438  and  _439
REMARK  179  A    between atoms: _438  and  _441
REMARK  180  A    between atoms: _444  and  _446
REMARK  181  A    between atoms: _446  and  _447
REMARK  182  A    between atoms: _446  and  _449
REMARK  183  A    between atoms: _449  and  _450
REMARK  184  A    between atoms: _453  and  _455
REMARK  185  A    between atoms: _455  and  _456
REMARK  186  A    between atoms: _455  and  _458
REMARK  187  A    between atoms: _458  and  _459
REMARK  188  A    between atoms: _461  and  _463
REMARK  189  A    between atoms: _463  and  _464
REMARK  190  A    between atoms: _466  and  _468
REMARK  191  A    between atoms: _468  and  _469
REMARK  192  A    between atoms: _468  and  _471
REMARK  193  A    between atoms: _471  and  _472
REMARK  194  A    between atoms: _475  and  _477
REMARK  195  A    between atoms: _477  and  _478
REMARK  196  A    between atoms: _477  and  _480
REMARK  197  A    between atoms: _480  and  _481
REMARK  198  A    between atoms: _484  and  _486
REMARK  199  A    between atoms: _486  and  _487
REMARK  200  A    between atoms: _486  and  _489
REMARK  201  A    between atoms: _489  and  _490
REMARK  202  A    between atoms: _495  and  _497
REMARK  203  A    between atoms: _497  and  _498
REMARK  204  A    between atoms: _497  and  _500
REMARK  205  A    between atoms: _500  and  _501
REMARK  206  A    between atoms: _501  and  _502
REMARK  207  A    between atoms: _502  and  _503
REMARK  208  A    between atoms: _512  and  _514
REMARK  209  A    between atoms: _514  and  _515
REMARK  210  A    between atoms: _514  and  _517
REMARK  211  A    between atoms: _517  and  _518
REMARK  212  A    between atoms: _518  and  _519
REMARK  213  A    between atoms: _519  and  _520
REMARK  214  A    between atoms: _529  and  _531
REMARK  215  A    between atoms: _531  and  _532
REMARK  216  A    between atoms: _531  and  _534
REMARK  217  A    between atoms: _534  and  _535
REMARK  218  A    between atoms: _537  and  _539
REMARK  219  A    between atoms: _539  and  _540
REMARK  220  A    between atoms: _539  and  _542
REMARK  221  A    between atoms: _542  and  _543
REMARK  222  A    between atoms: _543  and  _544
REMARK  223  A    between atoms: _549  and  _551
REMARK  224  A    between atoms: _551  and  _552
REMARK  225  A    between atoms: _551  and  _554
REMARK  226  A    between atoms: _554  and  _555
REMARK  227  A    between atoms: _557  and  _559
REMARK  228  A    between atoms: _559  and  _560
REMARK  229  A    between atoms: _559  and  _562
REMARK  230  A    between atoms: _562  and  _563
REMARK  231  A    between atoms: _565  and  _567
REMARK  232  A    between atoms: _567  and  _568
REMARK  233  A    between atoms: _567  and  _570
REMARK  234  A    between atoms: _570  and  _571
REMARK  235  A    between atoms: _574  and  _576
REMARK  236  A    between atoms: _576  and  _577
REMARK  237  A    between atoms: _576  and  _579
REMARK  238  A    between atoms: _579  and  _580
REMARK  239  A    between atoms: _583  and  _585
REMARK  240  A    between atoms: _585  and  _586
REMARK  241  A    between atoms: _585  and  _588
REMARK  242  A    between atoms: _591  and  _593
REMARK  243  A    between atoms: _593  and  _594
REMARK  244  A    between atoms: _596  and  _598
REMARK  245  A    between atoms: _598  and  _599
REMARK  246  A    between atoms: _602  and  _604
REMARK  247  A    between atoms: _604  and  _605
REMARK  248  A    between atoms: _604  and  _607
REMARK                            x       y       z     vdW  Elec       q    Type
REMARK                         _______ _______ _______ _____ _____    ______ ____
ROOT
ATOM      1  O   HOH     1       9.181  12.046  18.786  0.00  0.00    +0.000 OA
ENDROOT
TORSDOF 0
